          12
 Energy:  -29.938122600000000     
 X   0.00000000       0.00000000       0.00000000    
 X   3.03778172      -0.00000000      -0.00000000    
 X  -1.51889086       2.63079619       0.00000000    
 X  -0.00000000       0.00000000       4.91322088    
 X   1.51889086       2.63079619       0.00000000    
 X   3.03778172       0.00000000       4.91322088    
 X  -1.51889086       2.63079619       4.91322088    
 X   1.51889086       2.63079619       4.91322088    
 Al   0.00000000       1.75386000       0.00000000    
 Al   1.51889002      0.876929998       2.45660996    
 N    0.00000000       1.75386000       3.07076001    
 N    1.51889002      0.876929998      0.614149988    
