         265
 Energy:  -969.41535520000002     
 X   0.00000000       0.00000000       0.00000000    
 X   16.1980000       0.00000000       0.00000000    
 X   0.00000000       16.1980000       0.00000000    
 X   0.00000000       0.00000000       16.1980000    
 X   16.1980000       16.1980000       0.00000000    
 X   16.1980000       0.00000000       16.1980000    
 X   0.00000000       16.1980000       16.1980000    
 X   16.1980000       16.1980000       16.1980000    
 Al -0.303860009       0.00000000       0.00000000    
 Al  -3.62499990E-02   2.06288004       2.06288004    
 Al   2.02217007       0.00000000       1.99337995    
 Al   2.02217007       1.99337995       0.00000000    
 Al   8.91000032E-03   0.00000000       4.03091002    
 Al   5.22000017E-03   2.02027988       6.06820011    
 Al   2.02028990       0.00000000       6.05227995    
 Al   2.02603006       2.01715994       4.03956985    
 Al   9.90999956E-03   0.00000000       8.09899998    
 Al   5.22000017E-03   2.02027988       10.1297998    
 Al   2.02028990       0.00000000       10.1457195    
 Al   2.02326012       2.01659012       8.09899998    
 Al   8.91000032E-03   0.00000000       12.1670904    
 Al  -3.62499990E-02   2.06288004       14.1351204    
 Al   2.02217007       0.00000000       14.2046204    
 Al   2.02603006       2.01715994       12.1584301    
 Al   8.91000032E-03   4.03091002       0.00000000    
 Al   5.22000017E-03   6.06820011       2.02027988    
 Al   2.02603006       4.03956985       2.01715994    
 Al   2.02028990       6.05227995       0.00000000    
 Al   9.30999964E-03   4.05111980       4.05111980    
 Al   1.84000004E-03   6.07586002       6.07586002    
 Al   2.02287006       4.04103994       6.06954002    
 Al   2.02287006       6.06954002       4.04103994    
 Al   7.49999983E-03   4.04370022       8.09899998    
 Al   1.84000004E-03   6.07586002       10.1221399    
 Al   2.02287006       4.04103994       10.1284599    
 Al   2.02659988       6.07537985       8.09899998    
 Al   9.30999964E-03   4.05111980       12.1468801    
 Al   5.22000017E-03   6.06820011       14.1777201    
 Al   2.02603006       4.03956985       14.1808395    
 Al   2.02287006       6.06954002       12.1569595    
 Al   9.90999956E-03   8.09899998       0.00000000    
 Al   5.22000017E-03   10.1297998       2.02027988    
 Al   2.02326012       8.09899998       2.01659012    
 Al   2.02028990       10.1457195       0.00000000    
 Al   7.49999983E-03   8.09899998       4.04370022    
 Al   1.84000004E-03   10.1221399       6.07586002    
 Al   2.02659988       8.09899998       6.07537985    
 Al   2.02287006       10.1284599       4.04103994    
 Al  -1.64999999E-03   8.09899998       8.09899998    
 Al   1.84000004E-03   10.1221399       10.1221399    
 Al   2.02659988       8.09899998       10.1226196    
 Al   2.02659988       10.1226196       8.09899998    
 Al   7.49999983E-03   8.09899998       12.1542997    
 Al   5.22000017E-03   10.1297998       14.1777201    
 Al   2.02326012       8.09899998       14.1814098    
 Al   2.02287006       10.1284599       12.1569595    
 Al   8.91000032E-03   12.1670904       0.00000000    
 Al  -3.62499990E-02   14.1351204       2.06288004    
 Al   2.02603006       12.1584301       2.01715994    
 Al   2.02217007       14.2046204       0.00000000    
 Al   9.30999964E-03   12.1468801       4.05111980    
 Al   5.22000017E-03   14.1777201       6.06820011    
 Al   2.02287006       12.1569595       6.06954002    
 Al   2.02603006       14.1808395       4.03956985    
 Al   7.49999983E-03   12.1542997       8.09899998    
 Al   5.22000017E-03   14.1777201       10.1297998    
 Al   2.02287006       12.1569595       10.1284599    
 Al   2.02326012       14.1814098       8.09899998    
 Al   9.30999964E-03   12.1468801       12.1468801    
 Al  -3.62499990E-02   14.1351204       14.1351204    
 Al   2.02603006       12.1584301       14.1808395    
 Al   2.02603006       14.1808395       12.1584301    
 Al   4.24450016       0.00000000       0.00000000    
 Al   4.04134989       1.98920000       1.98920000    
 Al   6.12981987       0.00000000       2.04109001    
 Al   6.12981987       2.04109001       0.00000000    
 Al   4.04963017       0.00000000       4.04438019    
 Al   4.04201984       2.01974010       6.07147980    
 Al   6.06255007       0.00000000       6.06937981    
 Al   6.06852007       2.02490997       4.04084015    
 Al   4.04032993       0.00000000       8.09899998    
 Al   4.04201984       2.01974010       10.1265202    
 Al   6.06255007       0.00000000       10.1286201    
 Al   6.06009007       2.02255988       8.09899998    
 Al   4.04963017       0.00000000       12.1536198    
 Al   4.04134989       1.98920000       14.2088003    
 Al   6.12981987       0.00000000       14.1569099    
 Al   6.06852007       2.02490997       12.1571598    
 Al   4.04963017       4.04438019       0.00000000    
 Al   4.04201984       6.07147980       2.01974010    
 Al   6.06852007       4.04084015       2.02490997    
 Al   6.06255007       6.06937981       0.00000000    
 Al   4.04137993       4.03489017       4.03489017    
 Al   4.04570007       6.07025003       6.07025003    
 Al   6.06471014       4.04744005       6.07274008    
 Al   6.06471014       6.07274008       4.04744005    
 Al   4.04196978       4.04200983       8.09899998    
 Al   4.04570007       6.07025003       10.1277504    
 Al   6.06471014       4.04744005       10.1252604    
 Al   6.06388998       6.07066011       8.09899998    
 Al   4.04137993       4.03489017       12.1631098    
 Al   4.04201984       6.07147980       14.1782598    
 Al   6.06852007       4.04084015       14.1730900    
 Al   6.06471014       6.07274008       12.1505604    
 Al   4.04032993       8.09899998       0.00000000    
 Al   4.04201984       10.1265202       2.01974010    
 Al   6.06009007       8.09899998       2.02255988    
 Al   6.06255007       10.1286201       0.00000000    
 Al   4.04196978       8.09899998       4.04200983    
 Al   4.04570007       10.1277504       6.07025003    
 Al   6.06388998       8.09899998       6.07066011    
 Al   6.06471014       10.1252604       4.04744005    
 Al   4.05240011       8.09899998       8.09899998    
 Al   4.04570007       10.1277504       10.1277504    
 Al   6.06388998       8.09899998       10.1273403    
 Al   6.06388998       10.1273403       8.09899998    
 Al   4.04196978       8.09899998       12.1559896    
 Al   4.04201984       10.1265202       14.1782598    
 Al   6.06009007       8.09899998       14.1754398    
 Al   6.06471014       10.1252604       12.1505604    
 Al   4.04963017       12.1536198       0.00000000    
 Al   4.04134989       14.2088003       1.98920000    
 Al   6.06852007       12.1571598       2.02490997    
 Al   6.12981987       14.1569099       0.00000000    
 Al   4.04137993       12.1631098       4.03489017    
 Al   4.04201984       14.1782598       6.07147980    
 Al   6.06471014       12.1505604       6.07274008    
 Al   6.06852007       14.1730900       4.04084015    
 Al   4.04196978       12.1559896       8.09899998    
 Al   4.04201984       14.1782598       10.1265202    
 Al   6.06471014       12.1505604       10.1252604    
 Al   6.06009007       14.1754398       8.09899998    
 Al   4.04137993       12.1631098       12.1631098    
 Al   4.04134989       14.2088003       14.2088003    
 Al   6.06852007       12.1571598       14.1730900    
 Al   6.06852007       14.1730900       12.1571598    
 Al   8.12843990       0.00000000       0.00000000    
 Al   8.11709023       2.02748990       2.02748990    
 Al   10.1412601       0.00000000       2.02544999    
 Al   10.1412601       2.02544999       0.00000000    
 Al   8.10369968       0.00000000       4.05561018    
 Al   8.08905029       2.02628994       6.07160997    
 Al   10.1206903       0.00000000       6.08413982    
 Al   10.1213102       2.02793002       4.05180979    
 Al   8.09218025       0.00000000       8.09899998    
 Al   8.08905029       2.02628994       10.1263905    
 Al   10.1206903       0.00000000       10.1138601    
 Al   10.1196899       2.02827001       8.09899998    
 Al   8.10369968       0.00000000       12.1423903    
 Al   8.11709023       2.02748990       14.1705103    
 Al   10.1412601       0.00000000       14.1725502    
 Al   10.1213102       2.02793002       12.1461897    
 Al   8.10369968       4.05561018       0.00000000    
 Al   8.08905029       6.07160997       2.02628994    
 Al   10.1213102       4.05180979       2.02793002    
 Al   10.1206903       6.08413982       0.00000000    
 Al   8.09323025       4.05005980       4.05005980    
 Al   8.09226990       6.07476997       6.07476997    
 Al   10.1185799       4.04975986       6.07385015    
 Al   10.1185799       6.07385015       4.04975986    
 Al   8.09047985       4.04453993       8.09899998    
 Al   8.09226990       6.07476997       10.1232300    
 Al   10.1185799       4.04975986       10.1241503    
 Al   10.1207304       6.07461977       8.09899998    
 Al   8.09323025       4.05005980       12.1479397    
 Al   8.08905029       6.07160997       14.1717100    
 Al   10.1213102       4.05180979       14.1700697    
 Al   10.1185799       6.07385015       12.1482401    
 Al   8.09218025       8.09899998       0.00000000    
 Al   8.08905029       10.1263905       2.02628994    
 Al   10.1196899       8.09899998       2.02827001    
 Al   10.1206903       10.1138601       0.00000000    
 Al   8.09047985       8.09899998       4.04453993    
 Al   8.09226990       10.1232300       6.07476997    
 Al   10.1207304       8.09899998       6.07461977    
 Al   10.1185799       10.1241503       4.04975986    
 Al   8.08876991       8.09899998       8.09899998    
 Al   8.09226990       10.1232300       10.1232300    
 Al   10.1207304       8.09899998       10.1233797    
 Al   10.1207304       10.1233797       8.09899998    
 Al   8.09047985       8.09899998       12.1534595    
 Al   8.08905029       10.1263905       14.1717100    
 Al   10.1196899       8.09899998       14.1697302    
 Al   10.1185799       10.1241503       12.1482401    
 Al   8.10369968       12.1423903       0.00000000    
 Al   8.11709023       14.1705103       2.02748990    
 Al   10.1213102       12.1461897       2.02793002    
 Al   10.1412601       14.1725502       0.00000000    
 Al   8.09323025       12.1479397       4.05005980    
 Al   8.08905029       14.1717100       6.07160997    
 Al   10.1185799       12.1482401       6.07385015    
 Al   10.1213102       14.1700697       4.05180979    
 Al   8.09047985       12.1534595       8.09899998    
 Al   8.08905029       14.1717100       10.1263905    
 Al   10.1185799       12.1482401       10.1241503    
 Al   10.1196899       14.1697302       8.09899998    
 Al   8.09323025       12.1479397       12.1479397    
 Al   8.11709023       14.1705103       14.1705103    
 Al   10.1213102       12.1461897       14.1700697    
 Al   10.1213102       14.1700697       12.1461897    
 Al   12.1713600       0.00000000       0.00000000    
 Al   12.1455097       2.02789998       2.02789998    
 Al   14.1374302       0.00000000       2.06872010    
 Al   14.1374302       2.06872010       0.00000000    
 Al   12.1311598       0.00000000       4.06701994    
 Al   12.1438999       2.02729988       6.08302021    
 Al   14.1810703       0.00000000       6.07592010    
 Al   14.1693001       2.02166009       4.06104994    
 Al   12.1495304       0.00000000       8.09899998    
 Al   12.1438999       2.02729988       10.1149797    
 Al   14.1810703       0.00000000       10.1220798    
 Al   14.1791801       2.02488995       8.09899998    
 Al   12.1311598       0.00000000       12.1309795    
 Al   12.1455097       2.02789998       14.1701002    
 Al   14.1374302       0.00000000       14.1292801    
 Al   14.1693001       2.02166009       12.1369495    
 Al   12.1311598       4.06701994       0.00000000    
 Al   12.1438999       6.08302021       2.02729988    
 Al   14.1693001       4.06104994       2.02166009    
 Al   14.1810703       6.07592010       0.00000000    
 Al   12.1517401       4.04872990       4.04872990    
 Al   12.1500797       6.07422018       6.07422018    
 Al   14.1777000       4.04974985       6.07476997    
 Al   14.1777000       6.07476997       4.04974985    
 Al   12.1489601       4.05375004       8.09899998    
 Al   12.1500797       6.07422018       10.1237803    
 Al   14.1777000       4.04974985       10.1232300    
 Al   14.1768103       6.07435989       8.09899998    
 Al   12.1517401       4.04872990       12.1492701    
 Al   12.1438999       6.08302021       14.1707001    
 Al   14.1693001       4.06104994       14.1763401    
 Al   14.1777000       6.07476997       12.1482496    
 Al   12.1495304       8.09899998       0.00000000    
 Al   12.1438999       10.1149797       2.02729988    
 Al   14.1791801       8.09899998       2.02488995    
 Al   14.1810703       10.1220798       0.00000000    
 Al   12.1489601       8.09899998       4.05375004    
 Al   12.1500797       10.1237803       6.07422018    
 Al   14.1768103       8.09899998       6.07435989    
 Al   14.1777000       10.1232300       4.04974985    
 Al   12.1477699       8.09899998       8.09899998    
 Al   12.1500797       10.1237803       10.1237803    
 Al   14.1768103       8.09899998       10.1236401    
 Al   14.1768103       10.1236401       8.09899998    
 Al   12.1489601       8.09899998       12.1442499    
 Al   12.1438999       10.1149797       14.1707001    
 Al   14.1791801       8.09899998       14.1731100    
 Al   14.1777000       10.1232300       12.1482496    
 Al   12.1311598       12.1309795       0.00000000    
 Al   12.1455097       14.1701002       2.02789998    
 Al   14.1693001       12.1369495       2.02166009    
 Al   14.1374302       14.1292801       0.00000000    
 Al   12.1517401       12.1492701       4.04872990    
 Al   12.1438999       14.1707001       6.08302021    
 Al   14.1777000       12.1482496       6.07476997    
 Al   14.1693001       14.1763401       4.06104994    
 Al   12.1489601       12.1442499       8.09899998    
 Al   12.1438999       14.1707001       10.1149797    
 Al   14.1777000       12.1482496       10.1232300    
 Al   14.1791801       14.1731100       8.09899998    
 Al   12.1517401       12.1492701       12.1492701    
 Al   12.1455097       14.1701002       14.1701002    
 Al   14.1693001       12.1369495       14.1763401    
 Al   14.1693001       14.1763401       12.1369495    
 N    1.59870994       0.00000000       0.00000000    
