         259
 Energy:  -1314.9235361999999     
 X   0.00000000       0.00000000       0.00000000    
 X   14.5000000       0.00000000       0.00000000    
 X   0.00000000       14.5000000       0.00000000    
 X   0.00000000       0.00000000       14.5000000    
 X   14.5000000       14.5000000       0.00000000    
 X   14.5000000       0.00000000       14.5000000    
 X   0.00000000       14.5000000       14.5000000    
 X   14.5000000       14.5000000       14.5000000    
 Ni   2.09999998E-04   2.09999998E-04  -0.00000000    
 Ni  -2.82799993E-02  -2.82799993E-02   2.96261001    
 Ni  -1.49299996E-02  -1.49299996E-02   5.81765985    
 Ni  -1.49299996E-02  -1.49299996E-02   8.68233967    
 Ni  -2.82799993E-02  -2.82799993E-02   11.5373898    
 Ni   2.09999998E-04   2.89979005      -0.00000000    
 Ni  -2.82799993E-02   2.92828012       2.96261001    
 Ni  -1.49299996E-02   2.91493011       5.81765985    
 Ni  -1.49299996E-02   2.91493011       8.68233967    
 Ni  -2.82799993E-02   2.92828012       11.5373898    
 Ni   1.98199991E-02   5.78366995      -0.00000000    
 Ni  -1.00900000E-02   5.80737019       2.91461992    
 Ni  -6.25000009E-03   5.81525993       5.80907011    
 Ni  -6.25000009E-03   5.81525993       8.69093037    
 Ni  -1.00900000E-02   5.80737019       11.5853796    
 Ni   7.95000046E-03   8.69999981      -0.00000000    
 Ni  -4.31000022E-03   8.69999981       2.89685011    
 Ni  -2.00000009E-03   8.69999981       5.79879999    
 Ni  -2.00000009E-03   8.69999981       8.70119953    
 Ni  -4.31000022E-03   8.69999981       11.6031504    
 Ni   1.98199991E-02   11.6163301      -0.00000000    
 Ni  -1.00900000E-02   11.5926304       2.91461992    
 Ni  -6.25000009E-03   11.5847397       5.80907011    
 Ni  -6.25000009E-03   11.5847397       8.69093037    
 Ni  -1.00900000E-02   11.5926304       11.5853796    
 Ni   2.89979005       2.09999998E-04  -0.00000000    
 Ni   2.92828012      -2.82799993E-02   2.96261001    
 Ni   2.91493011      -1.49299996E-02   5.81765985    
 Ni   2.91493011      -1.49299996E-02   8.68233967    
 Ni   2.92828012      -2.82799993E-02   11.5373898    
 Ni   2.89979005       2.89979005      -0.00000000    
 Ni   2.92828012       2.92828012       2.96261001    
 Ni   2.91493011       2.91493011       5.81765985    
 Ni   2.91493011       2.91493011       8.68233967    
 Ni   2.92828012       2.92828012       11.5373898    
 Ni   2.88017988       5.78366995      -0.00000000    
 Ni   2.91008997       5.80737019       2.91461992    
 Ni   2.90625000       5.81525993       5.80907011    
 Ni   2.90625000       5.81525993       8.69093037    
 Ni   2.91008997       5.80737019       11.5853796    
 Ni   2.89205003       8.69999981      -0.00000000    
 Ni   2.90430999       8.69999981       2.89685011    
 Ni   2.90199995       8.69999981       5.79879999    
 Ni   2.90199995       8.69999981       8.70119953    
 Ni   2.90430999       8.69999981       11.6031504    
 Ni   2.88017988       11.6163301      -0.00000000    
 Ni   2.91008997       11.5926304       2.91461992    
 Ni   2.90625000       11.5847397       5.80907011    
 Ni   2.90625000       11.5847397       8.69093037    
 Ni   2.91008997       11.5926304       11.5853796    
 Ni   5.78366995       1.98199991E-02  -0.00000000    
 Ni   5.80737019      -1.00900000E-02   2.91461992    
 Ni   5.81525993      -6.25000009E-03   5.80907011    
 Ni   5.81525993      -6.25000009E-03   8.69093037    
 Ni   5.80737019      -1.00900000E-02   11.5853796    
 Ni   5.78366995       2.88017988      -0.00000000    
 Ni   5.80737019       2.91008997       2.91461992    
 Ni   5.81525993       2.90625000       5.80907011    
 Ni   5.81525993       2.90625000       8.69093037    
 Ni   5.80737019       2.91008997       11.5853796    
 Ni   5.79404020       5.79404020      -0.00000000    
 Ni   5.80191994       5.80191994       2.89302993    
 Ni   5.81292009       5.81292009       5.79882002    
 Ni   5.81292009       5.81292009       8.70118046    
 Ni   5.80191994       5.80191994       11.6069698    
 Ni   5.78952980       8.69999981      -0.00000000    
 Ni   5.80026007       8.69999981       2.88695002    
 Ni   5.80817986       8.69999981       5.79622984    
 Ni   5.80817986       8.69999981       8.70376968    
 Ni   5.80026007       8.69999981       11.6130505    
 Ni   5.79404020       11.6059599      -0.00000000    
 Ni   5.80191994       11.5980797       2.89302993    
 Ni   5.81292009       11.5870800       5.79882002    
 Ni   5.81292009       11.5870800       8.70118046    
 Ni   5.80191994       11.5980797       11.6069698    
 Ni   8.69999981       7.95000046E-03  -0.00000000    
 Ni   8.69999981      -4.31000022E-03   2.89685011    
 Ni   8.69999981      -2.00000009E-03   5.79879999    
 Ni   8.69999981      -2.00000009E-03   8.70119953    
 Ni   8.69999981      -4.31000022E-03   11.6031504    
 Ni   8.69999981       2.89205003      -0.00000000    
 Ni   8.69999981       2.90430999       2.89685011    
 Ni   8.69999981       2.90199995       5.79879999    
 Ni   8.69999981       2.90199995       8.70119953    
 Ni   8.69999981       2.90430999       11.6031504    
 Ni   8.69999981       5.78952980      -0.00000000    
 Ni   8.69999981       5.80026007       2.88695002    
 Ni   8.69999981       5.80817986       5.79622984    
 Ni   8.69999981       5.80817986       8.70376968    
 Ni   8.69999981       5.80026007       11.6130505    
 Ni   8.69999981       8.69999981      -0.00000000    
 Ni   8.69999981       8.69999981       2.88434005    
 Ni   8.69999981       8.69999981       5.78676987    
 Ni   8.69999981       8.69999981       8.71323013    
 Ni   8.69999981       8.69999981       11.6156597    
 Ni   8.69999981       11.6104698      -0.00000000    
 Ni   8.69999981       11.5997400       2.88695002    
 Ni   8.69999981       11.5918198       5.79622984    
 Ni   8.69999981       11.5918198       8.70376968    
 Ni   8.69999981       11.5997400       11.6130505    
 Ni   11.6163301       1.98199991E-02  -0.00000000    
 Ni   11.5926304      -1.00900000E-02   2.91461992    
 Ni   11.5847397      -6.25000009E-03   5.80907011    
 Ni   11.5847397      -6.25000009E-03   8.69093037    
 Ni   11.5926304      -1.00900000E-02   11.5853796    
 Ni   11.6163301       2.88017988      -0.00000000    
 Ni   11.5926304       2.91008997       2.91461992    
 Ni   11.5847397       2.90625000       5.80907011    
 Ni   11.5847397       2.90625000       8.69093037    
 Ni   11.5926304       2.91008997       11.5853796    
 Ni   11.6059599       5.79404020      -0.00000000    
 Ni   11.5980797       5.80191994       2.89302993    
 Ni   11.5870800       5.81292009       5.79882002    
 Ni   11.5870800       5.81292009       8.70118046    
 Ni   11.5980797       5.80191994       11.6069698    
 Ni   11.6104698       8.69999981      -0.00000000    
 Ni   11.5997400       8.69999981       2.88695002    
 Ni   11.5918198       8.69999981       5.79622984    
 Ni   11.5918198       8.69999981       8.70376968    
 Ni   11.5997400       8.69999981       11.6130505    
 Ni   11.6059599       11.6059599      -0.00000000    
 Ni   11.5980797       11.5980797       2.89302993    
 Ni   11.5870800       11.5870800       5.79882002    
 Ni   11.5870800       11.5870800       8.70118046    
 Ni   11.5980797       11.5980797       11.6069698    
 Al   1.45000005       1.45000005       1.79996002    
 Al   1.45000005       1.45000005       4.45066023    
 Al   1.45000005       1.45000005       7.25000000    
 Al   1.45000005       1.45000005       10.0493402    
 Al   1.45000005       1.45000005       12.7000399    
 Al   1.45000005       4.36878014       1.50013006    
 Al   1.45000005       4.36725998       4.37765980    
 Al   1.45000005       4.36395979       7.25000000    
 Al   1.45000005       4.36725998       10.1223402    
 Al   1.45000005       4.36878014       12.9998703    
 Al   1.45000005       7.24924994       1.45357001    
 Al   1.45000005       7.25562000       4.35082006    
 Al   1.45000005       7.25825024       7.25000000    
 Al   1.45000005       7.25562000       10.1491804    
 Al   1.45000005       7.24924994       13.0464296    
 Al   1.45000005       10.1507502       1.45357001    
 Al   1.45000005       10.1443796       4.35082006    
 Al   1.45000005       10.1417503       7.25000000    
 Al   1.45000005       10.1443796       10.1491804    
 Al   1.45000005       10.1507502       13.0464296    
 Al   1.45000005       13.0312204       1.50013006    
 Al   1.45000005       13.0327396       4.37765980    
 Al   1.45000005       13.0360403       7.25000000    
 Al   1.45000005       13.0327396       10.1223402    
 Al   1.45000005       13.0312204       12.9998703    
 Al   4.36878014       1.45000005       1.50013006    
 Al   4.36725998       1.45000005       4.37765980    
 Al   4.36395979       1.45000005       7.25000000    
 Al   4.36725998       1.45000005       10.1223402    
 Al   4.36878014       1.45000005       12.9998703    
 Al   4.34373999       4.34373999       1.44815004    
 Al   4.36873007       4.36873007       4.37027979    
 Al   4.36561012       4.36561012       7.25000000    
 Al   4.36873007       4.36873007       10.1297197    
 Al   4.34373999       4.34373999       13.0518503    
 Al   4.34480000       7.24455023       1.44450998    
 Al   4.35753012       7.25622988       4.35078001    
 Al   4.35942984       7.25889015       7.25000000    
 Al   4.35753012       7.25622988       10.1492205    
 Al   4.34480000       7.24455023       13.0554895    
 Al   4.34480000       10.1554499       1.44450998    
 Al   4.35753012       10.1437702       4.35078001    
 Al   4.35942984       10.1411104       7.25000000    
 Al   4.35753012       10.1437702       10.1492205    
 Al   4.34480000       10.1554499       13.0554895    
 Al   4.34373999       13.0562601       1.44815004    
 Al   4.36873007       13.0312700       4.37027979    
 Al   4.36561012       13.0343904       7.25000000    
 Al   4.36873007       13.0312700       10.1297197    
 Al   4.34373999       13.0562601       13.0518503    
 Al   7.24924994       1.45000005       1.45357001    
 Al   7.25562000       1.45000005       4.35082006    
 Al   7.25825024       1.45000005       7.25000000    
 Al   7.25562000       1.45000005       10.1491804    
 Al   7.24924994       1.45000005       13.0464296    
 Al   7.24455023       4.34480000       1.44450998    
 Al   7.25622988       4.35753012       4.35078001    
 Al   7.25889015       4.35942984       7.25000000    
 Al   7.25622988       4.35753012       10.1492205    
 Al   7.24455023       4.34480000       13.0554895    
 Al   7.24780989       7.24780989       1.44041002    
 Al   7.25323009       7.25323009       4.34059000    
 Al   7.25708008       7.25708008       7.25000000    
 Al   7.25323009       7.25323009       10.1594105    
 Al   7.24780989       7.24780989       13.0595903    
 Al   7.24780989       10.1521902       1.44041002    
 Al   7.25323009       10.1467695       4.34059000    
 Al   7.25708008       10.1429195       7.25000000    
 Al   7.25323009       10.1467695       10.1594105    
 Al   7.24780989       10.1521902       13.0595903    
 Al   7.24455023       13.0551996       1.44450998    
 Al   7.25622988       13.0424700       4.35078001    
 Al   7.25889015       13.0405703       7.25000000    
 Al   7.25622988       13.0424700       10.1492205    
 Al   7.24455023       13.0551996       13.0554895    
 Al   10.1507502       1.45000005       1.45357001    
 Al   10.1443796       1.45000005       4.35082006    
 Al   10.1417503       1.45000005       7.25000000    
 Al   10.1443796       1.45000005       10.1491804    
 Al   10.1507502       1.45000005       13.0464296    
 Al   10.1554499       4.34480000       1.44450998    
 Al   10.1437702       4.35753012       4.35078001    
 Al   10.1411104       4.35942984       7.25000000    
 Al   10.1437702       4.35753012       10.1492205    
 Al   10.1554499       4.34480000       13.0554895    
 Al   10.1521902       7.24780989       1.44041002    
 Al   10.1467695       7.25323009       4.34059000    
 Al   10.1429195       7.25708008       7.25000000    
 Al   10.1467695       7.25323009       10.1594105    
 Al   10.1521902       7.24780989       13.0595903    
 Al   10.1521902       10.1521902       1.44041002    
 Al   10.1467695       10.1467695       4.34059000    
 Al   10.1429195       10.1429195       7.25000000    
 Al   10.1467695       10.1467695       10.1594105    
 Al   10.1521902       10.1521902       13.0595903    
 Al   10.1554499       13.0551996       1.44450998    
 Al   10.1437702       13.0424700       4.35078001    
 Al   10.1411104       13.0405703       7.25000000    
 Al   10.1437702       13.0424700       10.1492205    
 Al   10.1554499       13.0551996       13.0554895    
 Al   13.0312204       1.45000005       1.50013006    
 Al   13.0327396       1.45000005       4.37765980    
 Al   13.0360403       1.45000005       7.25000000    
 Al   13.0327396       1.45000005       10.1223402    
 Al   13.0312204       1.45000005       12.9998703    
 Al   13.0562601       4.34373999       1.44815004    
 Al   13.0312700       4.36873007       4.37027979    
 Al   13.0343904       4.36561012       7.25000000    
 Al   13.0312700       4.36873007       10.1297197    
 Al   13.0562601       4.34373999       13.0518503    
 Al   13.0551996       7.24455023       1.44450998    
 Al   13.0424700       7.25622988       4.35078001    
 Al   13.0405703       7.25889015       7.25000000    
 Al   13.0424700       7.25622988       10.1492205    
 Al   13.0551996       7.24455023       13.0554895    
 Al   13.0551996       10.1554499       1.44450998    
 Al   13.0424700       10.1437702       4.35078001    
 Al   13.0405703       10.1411104       7.25000000    
 Al   13.0424700       10.1437702       10.1492205    
 Al   13.0551996       10.1554499       13.0554895    
 Al   13.0562601       13.0562601       1.44815004    
 Al   13.0312700       13.0312700       4.37027979    
 Al   13.0343904       13.0343904       7.25000000    
 Al   13.0312700       13.0312700       10.1297197    
 Al   13.0562601       13.0562601       13.0518503    
 N    1.45000005       1.45000005      -0.00000000    
