         265
 Energy:  -969.41324910000003     
 X   0.00000000       0.00000000       0.00000000    
 X   16.1980000       0.00000000       0.00000000    
 X   0.00000000       16.1980000       0.00000000    
 X   0.00000000       0.00000000       16.1980000    
 X   16.1980000       16.1980000       0.00000000    
 X   16.1980000       0.00000000       16.1980000    
 X   0.00000000       16.1980000       16.1980000    
 X   16.1980000       16.1980000       16.1980000    
 Al  -3.85800004E-02  -0.00000000       0.00000000    
 Al  -1.61000004E-03   2.02636003       2.02636003    
 Al   2.02474999      -0.00000000       2.06332994    
 Al   2.02474999       2.06332994       0.00000000    
 Al  -2.30000005E-03  -0.00000000       4.05541992    
 Al   2.33999989E-03   2.02240992       6.07441998    
 Al   2.02474999      -0.00000000       6.05759001    
 Al   2.02474999       2.02705002       4.05541992    
 Al   6.76999986E-03  -0.00000000       8.09899998    
 Al   2.33999989E-03   2.02240992       10.1235800    
 Al   2.02474999      -0.00000000       10.1404104    
 Al   2.02474999       2.01798010       8.09899998    
 Al  -2.30000005E-03  -0.00000000       12.1425800    
 Al  -1.61000004E-03   2.02636003       14.1716404    
 Al   2.02474999      -0.00000000       14.1346703    
 Al   2.02474999       2.02705002       12.1425800    
 Al  -2.30000005E-03   4.05541992       0.00000000    
 Al   2.33999989E-03   6.07441998       2.02240992    
 Al   2.02474999       4.05541992       2.02705002    
 Al   2.02474999       6.05759001       0.00000000    
 Al   4.96000005E-03   4.04456997       4.04456997    
 Al  -5.79999993E-04   6.07318020       6.07318020    
 Al   2.02474999       4.04530001       6.07353020    
 Al   2.02474999       6.07353020       4.04530001    
 Al   2.57000001E-03   4.04391003       8.09899998    
 Al  -5.79999993E-04   6.07318020       10.1248198    
 Al   2.02474999       4.04530001       10.1244698    
 Al   2.02474999       6.07719994       8.09899998    
 Al   4.96000005E-03   4.04456997       12.1534300    
 Al   2.33999989E-03   6.07441998       14.1755896    
 Al   2.02474999       4.05541992       14.1709499    
 Al   2.02474999       6.07353020       12.1527004    
 Al   6.76999986E-03   8.09899998       0.00000000    
 Al   2.33999989E-03   10.1235800       2.02240992    
 Al   2.02474999       8.09899998       2.01798010    
 Al   2.02474999       10.1404104       0.00000000    
 Al   2.57000001E-03   8.09899998       4.04391003    
 Al  -5.79999993E-04   10.1248198       6.07318020    
 Al   2.02474999       8.09899998       6.07719994    
 Al   2.02474999       10.1244698       4.04530001    
 Al  -3.22000007E-03   8.09899998       8.09899998    
 Al  -5.79999993E-04   10.1248198       10.1248198    
 Al   2.02474999       8.09899998       10.1208000    
 Al   2.02474999       10.1208000       8.09899998    
 Al   2.57000001E-03   8.09899998       12.1540899    
 Al   2.33999989E-03   10.1235800       14.1755896    
 Al   2.02474999       8.09899998       14.1800203    
 Al   2.02474999       10.1244698       12.1527004    
 Al  -2.30000005E-03   12.1425800       0.00000000    
 Al  -1.61000004E-03   14.1716404       2.02636003    
 Al   2.02474999       12.1425800       2.02705002    
 Al   2.02474999       14.1346703       0.00000000    
 Al   4.96000005E-03   12.1534300       4.04456997    
 Al   2.33999989E-03   14.1755896       6.07441998    
 Al   2.02474999       12.1527004       6.07353020    
 Al   2.02474999       14.1709499       4.05541992    
 Al   2.57000001E-03   12.1540899       8.09899998    
 Al   2.33999989E-03   14.1755896       10.1235800    
 Al   2.02474999       12.1527004       10.1244698    
 Al   2.02474999       14.1800203       8.09899998    
 Al   4.96000005E-03   12.1534300       12.1534300    
 Al  -1.61000004E-03   14.1716404       14.1716404    
 Al   2.02474999       12.1425800       14.1709499    
 Al   2.02474999       14.1709499       12.1425800    
 Al   4.08807993      -0.00000000       0.00000000    
 Al   4.05110979       2.02636003       2.02636003    
 Al   6.08017015      -0.00000000       2.02705002    
 Al   6.08017015       2.02705002       0.00000000    
 Al   4.05179977      -0.00000000       4.05541992    
 Al   4.04716015       2.02240992       6.07441998    
 Al   6.07004976      -0.00000000       6.07353020    
 Al   6.06932020       2.01978993       4.04456997    
 Al   4.04272985      -0.00000000       8.09899998    
 Al   4.04716015       2.02240992       10.1235800    
 Al   6.07004976      -0.00000000       10.1244698    
 Al   6.06865978       2.02218008       8.09899998    
 Al   4.05179977      -0.00000000       12.1425800    
 Al   4.05110979       2.02636003       14.1716404    
 Al   6.08017015      -0.00000000       14.1709499    
 Al   6.06932020       2.01978993       12.1534300    
 Al   4.05179977       4.05541992       0.00000000    
 Al   4.04716015       6.07441998       2.02240992    
 Al   6.06932020       4.04456997       2.01978993    
 Al   6.07004976       6.07353020       0.00000000    
 Al   4.04453993       4.04456997       4.04456997    
 Al   4.05007982       6.07318020       6.07318020    
 Al   6.07164001       4.04688978       6.07134008    
 Al   6.07164001       6.07134008       4.04688978    
 Al   4.04692984       4.04391003       8.09899998    
 Al   4.05007982       6.07318020       10.1248198    
 Al   6.07164001       4.04688978       10.1266603    
 Al   6.07220984       6.07128000       8.09899998    
 Al   4.04453993       4.04456997       12.1534300    
 Al   4.04716015       6.07441998       14.1755896    
 Al   6.06932020       4.04456997       14.1782103    
 Al   6.07164001       6.07134008       12.1511097    
 Al   4.04272985       8.09899998       0.00000000    
 Al   4.04716015       10.1235800       2.02240992    
 Al   6.06865978       8.09899998       2.02218008    
 Al   6.07004976       10.1244698       0.00000000    
 Al   4.04692984       8.09899998       4.04391003    
 Al   4.05007982       10.1248198       6.07318020    
 Al   6.07220984       8.09899998       6.07128000    
 Al   6.07164001       10.1266603       4.04688978    
 Al   4.05272007       8.09899998       8.09899998    
 Al   4.05007982       10.1248198       10.1248198    
 Al   6.07220984       8.09899998       10.1267204    
 Al   6.07220984       10.1267204       8.09899998    
 Al   4.04692984       8.09899998       12.1540899    
 Al   4.04716015       10.1235800       14.1755896    
 Al   6.06865978       8.09899998       14.1758204    
 Al   6.07164001       10.1266603       12.1511097    
 Al   4.05179977       12.1425800       0.00000000    
 Al   4.05110979       14.1716404       2.02636003    
 Al   6.06932020       12.1534300       2.01978993    
 Al   6.08017015       14.1709499       0.00000000    
 Al   4.04453993       12.1534300       4.04456997    
 Al   4.04716015       14.1755896       6.07441998    
 Al   6.07164001       12.1511097       6.07134008    
 Al   6.06932020       14.1782103       4.04456997    
 Al   4.04692984       12.1540899       8.09899998    
 Al   4.04716015       14.1755896       10.1235800    
 Al   6.07164001       12.1511097       10.1266603    
 Al   6.06865978       14.1758204       8.09899998    
 Al   4.04453993       12.1534300       12.1534300    
 Al   4.05110979       14.1716404       14.1716404    
 Al   6.06932020       12.1534300       14.1782103    
 Al   6.06932020       14.1782103       12.1534300    
 Al   8.08234024      -0.00000000       0.00000000    
 Al   8.09916973       2.02240992       2.02240992    
 Al   10.1237497      -0.00000000       2.01798010    
 Al   10.1237497       2.01798010       0.00000000    
 Al   8.09827995      -0.00000000       4.04530001    
 Al   8.09792995       2.02533007       6.07318020    
 Al   10.1237497      -0.00000000       6.07719994    
 Al   10.1237497       2.02218008       4.04391003    
 Al   8.10194969      -0.00000000       8.09899998    
 Al   8.09792995       2.02533007       10.1248198    
 Al   10.1237497      -0.00000000       10.1208000    
 Al   10.1237497       2.02797008       8.09899998    
 Al   8.09827995      -0.00000000       12.1527004    
 Al   8.09916973       2.02240992       14.1755896    
 Al   10.1237497      -0.00000000       14.1800203    
 Al   10.1237497       2.02218008       12.1540899    
 Al   8.09827995       4.04530001       0.00000000    
 Al   8.09792995       6.07318020       2.02533007    
 Al   10.1237497       4.04391003       2.02218008    
 Al   10.1237497       6.07719994       0.00000000    
 Al   8.09609032       4.04688978       4.04688978    
 Al   8.09799004       6.07323980       6.07323980    
 Al   10.1237497       4.04746008       6.07128000    
 Al   10.1237497       6.07128000       4.04746008    
 Al   8.09603024       4.04746008       8.09899998    
 Al   8.09799004       6.07323980       10.1247597    
 Al   10.1237497       4.04746008       10.1267204    
 Al   10.1237497       6.07327986       8.09899998    
 Al   8.09609032       4.04688978       12.1511097    
 Al   8.09792995       6.07318020       14.1726704    
 Al   10.1237497       4.04391003       14.1758204    
 Al   10.1237497       6.07128000       12.1505404    
 Al   8.10194969       8.09899998       0.00000000    
 Al   8.09792995       10.1248198       2.02533007    
 Al   10.1237497       8.09899998       2.02797008    
 Al   10.1237497       10.1208000       0.00000000    
 Al   8.09603024       8.09899998       4.04746008    
 Al   8.09799004       10.1247597       6.07323980    
 Al   10.1237497       8.09899998       6.07327986    
 Al   10.1237497       10.1267204       4.04746008    
 Al   8.09803009       8.09899998       8.09899998    
 Al   8.09799004       10.1247597       10.1247597    
 Al   10.1237497       8.09899998       10.1247196    
 Al   10.1237497       10.1247196       8.09899998    
 Al   8.09603024       8.09899998       12.1505404    
 Al   8.09792995       10.1248198       14.1726704    
 Al   10.1237497       8.09899998       14.1700296    
 Al   10.1237497       10.1267204       12.1505404    
 Al   8.09827995       12.1527004       0.00000000    
 Al   8.09916973       14.1755896       2.02240992    
 Al   10.1237497       12.1540899       2.02218008    
 Al   10.1237497       14.1800203       0.00000000    
 Al   8.09609032       12.1511097       4.04688978    
 Al   8.09792995       14.1726704       6.07318020    
 Al   10.1237497       12.1505404       6.07128000    
 Al   10.1237497       14.1758204       4.04391003    
 Al   8.09603024       12.1505404       8.09899998    
 Al   8.09792995       14.1726704       10.1248198    
 Al   10.1237497       12.1505404       10.1267204    
 Al   10.1237497       14.1700296       8.09899998    
 Al   8.09609032       12.1511097       12.1511097    
 Al   8.09916973       14.1755896       14.1755896    
 Al   10.1237497       12.1540899       14.1758204    
 Al   10.1237497       14.1758204       12.1540899    
 Al   12.1651602      -0.00000000       0.00000000    
 Al   12.1483297       2.02240992       2.02240992    
 Al   14.1673298      -0.00000000       2.02705002    
 Al   14.1673298       2.02705002       0.00000000    
 Al   12.1492205      -0.00000000       4.04530001    
 Al   12.1495705       2.02533007       6.07318020    
 Al   14.1774502      -0.00000000       6.07353020    
 Al   14.1781797       2.01978993       4.04456997    
 Al   12.1455498      -0.00000000       8.09899998    
 Al   12.1495705       2.02533007       10.1248198    
 Al   14.1774502      -0.00000000       10.1244698    
 Al   14.1788397       2.02218008       8.09899998    
 Al   12.1492205      -0.00000000       12.1527004    
 Al   12.1483297       2.02240992       14.1755896    
 Al   14.1673298      -0.00000000       14.1709499    
 Al   14.1781797       2.01978993       12.1534300    
 Al   12.1492205       4.04530001       0.00000000    
 Al   12.1495705       6.07318020       2.02533007    
 Al   14.1781797       4.04456997       2.01978993    
 Al   14.1774502       6.07353020       0.00000000    
 Al   12.1514101       4.04688978       4.04688978    
 Al   12.1495104       6.07323980       6.07323980    
 Al   14.1758604       4.04688978       6.07134008    
 Al   14.1758604       6.07134008       4.04688978    
 Al   12.1514702       4.04746008       8.09899998    
 Al   12.1495104       6.07323980       10.1247597    
 Al   14.1758604       4.04688978       10.1266603    
 Al   14.1752901       6.07128000       8.09899998    
 Al   12.1514101       4.04688978       12.1511097    
 Al   12.1495705       6.07318020       14.1726704    
 Al   14.1781797       4.04456997       14.1782103    
 Al   14.1758604       6.07134008       12.1511097    
 Al   12.1455498       8.09899998       0.00000000    
 Al   12.1495705       10.1248198       2.02533007    
 Al   14.1788397       8.09899998       2.02218008    
 Al   14.1774502       10.1244698       0.00000000    
 Al   12.1514702       8.09899998       4.04746008    
 Al   12.1495104       10.1247597       6.07323980    
 Al   14.1752901       8.09899998       6.07128000    
 Al   14.1758604       10.1266603       4.04688978    
 Al   12.1494703       8.09899998       8.09899998    
 Al   12.1495104       10.1247597       10.1247597    
 Al   14.1752901       8.09899998       10.1267204    
 Al   14.1752901       10.1267204       8.09899998    
 Al   12.1514702       8.09899998       12.1505404    
 Al   12.1495705       10.1248198       14.1726704    
 Al   14.1788397       8.09899998       14.1758204    
 Al   14.1758604       10.1266603       12.1511097    
 Al   12.1492205       12.1527004       0.00000000    
 Al   12.1483297       14.1755896       2.02240992    
 Al   14.1781797       12.1534300       2.01978993    
 Al   14.1673298       14.1709499       0.00000000    
 Al   12.1514101       12.1511097       4.04688978    
 Al   12.1495705       14.1726704       6.07318020    
 Al   14.1758604       12.1511097       6.07134008    
 Al   14.1781797       14.1782103       4.04456997    
 Al   12.1514702       12.1505404       8.09899998    
 Al   12.1495705       14.1726704       10.1248198    
 Al   14.1758604       12.1511097       10.1266603    
 Al   14.1788397       14.1758204       8.09899998    
 Al   12.1514101       12.1511097       12.1511097    
 Al   12.1483297       14.1755896       14.1755896    
 Al   14.1781797       12.1534300       14.1782103    
 Al   14.1781797       14.1782103       12.1534300    
 N    2.02474999      -0.00000000       0.00000000    
