         261
 Energy:  -1297.3955754999999     
 X   0.00000000       0.00000000       0.00000000    
 X   0.00000000      -15.1462221       0.00000000    
 X   0.00000000      -7.57311106      -13.1170130    
 X   29.0000000       0.00000000       0.00000000    
 X   0.00000000      -22.7193336      -13.1170130    
 X   29.0000000      -15.1462221       0.00000000    
 X   29.0000000      -7.57311106      -13.1170130    
 X   29.0000000      -22.7193336      -13.1170130    
 Ni   3.03389001      -10.0974798      -5.82982016    
 Ni   3.03214002      -12.6218004      -10.2020798    
 Ni   3.03183007      -7.57235003      -1.45764005    
 Ni   3.03034997      -15.1464996      -5.82972002    
 Ni   3.03154993      -17.6705894      -10.2017498    
 Ni   3.03183007      -12.6226101      -1.45764005    
 Ni   3.03034997      -5.04846001      -5.82972002    
 Ni   3.03214002      -7.57316017      -10.2020798    
 Ni   3.03074002      -2.52436996      -1.45782995    
 Ni   5.03331995      -12.6211300      -7.28690004    
 Ni   5.03143978      -15.1449804      -11.6590996    
 Ni   5.03308010      -10.0974798      -2.91726995    
 Ni   5.03120995      -17.6705894      -7.28612995    
 Ni   5.03143978      -20.1961994      -11.6590996    
 Ni   5.03096008      -15.1464596      -2.91536999    
 Ni   5.03331995      -7.57383013      -7.28690004    
 Ni   5.03070021      -10.0974798      -11.6592398    
 Ni   5.03096008      -5.04851007      -2.91536999    
 Ni   7.03843021      -15.1450100      -8.74429035    
 Ni   7.03727007      -10.0974798       1.59999996E-04
 Ni   7.03937006      -12.6215601      -4.37342978    
 Ni   7.03843021      -5.04995012      -8.74429035    
 Ni   7.03741980       5.49999997E-04   6.20000006E-04
 Ni   7.03779984      -2.52436996      -4.37304020    
 Ni   7.04393005      -10.0974798      -8.74359989    
 Ni   7.03741980      -5.04929018       6.20000006E-04
 Ni   7.03937006      -7.57341003      -4.37342978    
 Ni   9.03806973      -17.6705894      -10.2021198    
 Ni   9.03757954      -12.6216097      -1.45710003    
 Ni   9.03798962      -15.1459799      -5.82976007    
 Ni   9.04037952      -7.57512999      -10.2006102    
 Ni   9.03829002      -2.52436996      -1.45714998    
 Ni   9.03798962      -5.04898977      -5.82976007    
 Ni   9.04037952      -12.6198301      -10.2006102    
 Ni   9.03757954      -7.57334995      -1.45710003    
 Ni   9.05142975      -10.0974798      -5.83312988    
 Ni   11.0445404      -20.1956997      -11.6575203    
 Ni   11.0451002      -15.1453304      -2.91488004    
 Ni   11.0434704      -17.6705894      -7.28869009    
 Ni   11.0460501      -10.0974798      -11.6591101    
 Ni   11.0451002      -5.04964018      -2.91488004    
 Ni   11.0569897      -7.57454014      -7.28782988    
 Ni   11.0445404      -15.1454802      -11.6575203    
 Ni   11.0455303      -10.0974798      -2.91774011    
 Ni   11.0569897      -12.6204205      -7.28782988    
 Ni   13.0495701       4.43999982E-03  -3.60000005E-04
 Ni   13.0522499      -2.52436996      -4.37244987    
 Ni   13.0498400      -5.05236006      -8.74473000    
 Ni   13.0495701      -5.05318022      -3.60000005E-04
 Ni   13.0529203      -7.57075977      -4.36859989    
 Ni   13.0765400      -10.0974798      -8.74693012    
 Ni   13.0520802      -10.0974798      -5.60000015E-04
 Ni   13.0529203      -12.6241999      -4.36859989    
 Ni   13.0498400      -15.1426001      -8.74473000    
 Ni   15.0424099      -2.52436996      -1.46245003    
 Ni   15.0378399      -5.03143978      -5.82781982    
 Ni   15.0398197      -7.56440020      -10.2173204    
 Ni   15.0360003      -7.57072020      -1.44824004    
 Ni   15.1728001      -10.0974798      -5.78584003    
 Ni   15.0398197      -12.6305599      -10.2173204    
 Ni   15.0360003      -12.6242399      -1.44824004    
 Ni   15.0378399      -15.1635199      -5.82781982    
 Ni   15.0398397      -17.6705894      -10.2036896    
 Ni   3.03034997      -6.31072998      -3.64339995    
 Ni   3.03389001      -8.83533001      -8.01593018    
 Ni   3.03034997      -11.3597498      -12.3885698    
 Ni   3.03214002      -11.3596497      -3.64368010    
 Ni   3.03214002      -13.8839703      -8.01593018    
 Ni   3.03154993      -16.4080906      -12.3884697    
 Ni   3.03074002      -16.4087391      -3.64341998    
 Ni   3.03183007      -18.9325600      -8.01519966    
 Ni   3.03183007      -21.4576893      -12.3888502    
 Ni   5.03331995      -8.83537006      -5.10185003    
 Ni   5.03331995      -11.3590202      -9.47294044    
 Ni   5.03120995      -6.30996990     -0.729269981    
 Ni   5.03070021      -13.8837500      -5.10123014    
 Ni   5.03143978      -16.4073792      -9.47255993    
 Ni   5.03143978      -11.3598804     -0.730030000    
 Ni   5.03096008      -3.78684998      -5.10061979    
 Ni   5.03308010      -6.31299019      -9.47220993    
 Ni   5.03096008      -1.26270998     -0.728690028    
 Ni   7.04393005      -11.3587303      -6.55905008    
 Ni   7.03843021      -13.8830996      -10.9299898    
 Ni   7.03843021      -8.83557034      -2.18741012    
 Ni   7.03741980      -16.4081497      -6.55928993    
 Ni   7.03727007      -18.9326401      -10.9309196    
 Ni   7.03741980      -13.8832302      -2.18600011    
 Ni   7.03937006      -6.31201982      -6.55821991    
 Ni   7.03937006      -8.83609009      -10.9300404    
 Ni   7.03779984      -3.78716993      -2.18582010    
 Ni   9.04037952      -13.8817196      -8.01496029    
 Ni   9.03806973      -16.4084091      -12.3882904    
 Ni   9.04037952      -11.3593702      -3.64612007    
 Ni   9.03757954      -18.9326000      -8.01632977    
 Ni   9.03757954      -21.4567299      -12.3882504    
 Ni   9.03829002      -16.4081497      -3.64375997    
 Ni   9.05142975      -8.83819962      -8.01428032    
 Ni   9.03798962      -11.3595304      -12.3880901    
 Ni   9.03798962      -6.31102991      -3.64384007    
 Ni   11.0445404      -16.4062595      -9.47377968    
 Ni   11.0445404      -11.3582602     -0.730390012    
 Ni   11.0460501      -13.8836403      -5.10129023    
 Ni   11.0455303      -6.31338978      -9.47196960    
 Ni   11.0451002      -1.26172996     -0.727949977    
 Ni   11.0451002      -3.78698993      -5.10184002    
 Ni   11.0569897      -11.3594704      -9.47185040    
 Ni   11.0434704      -6.31219006     -0.727999985    
 Ni   11.0569897      -8.83654022      -5.10200024    
 Ni   13.0520802      -18.9332600      -10.9305696    
 Ni   13.0495701      -13.8821297      -2.18214989    
 Ni   13.0495701      -16.4109402      -6.56217003    
 Ni   13.0529203      -8.83323002      -10.9347496    
 Ni   13.0522499      -3.78664994      -2.18611002    
 Ni   13.0529203      -6.30651999      -6.55834007    
 Ni   13.0498400      -13.8822699      -10.9276800    
 Ni   13.0498400      -8.83714962      -2.18928003    
 Ni   13.0765400      -11.3616199      -6.55738020    
 Ni   15.0360003      -21.4503708      -12.3949604    
 Ni   15.0424099      -16.4127407      -3.64110994    
 Ni   15.0360003      -18.9236107      -8.01848030    
 Ni   15.0378399      -11.3666096      -12.4042501    
 Ni   15.0378399      -6.30058002      -3.62962008    
 Ni   15.1728001      -8.79724026      -8.03792000    
 Ni   15.0398397      -16.4097691      -12.3874998    
 Ni   15.0398197      -11.3684797      -3.62846994    
 Ni   15.0398197      -13.9015598      -8.01589966    
 Ni   3.03152990      -7.57341003      -5.82995987    
 Ni   3.03152990      -10.0974798      -10.2017698    
 Ni   3.03131008      -5.04839993      -1.45764005    
 Ni   3.03152990      -12.6215496      -5.82995987    
 Ni   3.03198004      -15.1455603      -10.2017403    
 Ni   3.03198004      -10.0974798      -1.45820999    
 Ni   3.03131008      -17.6705894      -5.82940006    
 Ni   3.03198004      -20.1956291      -10.2017403    
 Ni   3.03131008      -15.1465597      -1.45764005    
 Ni   5.03462982      -10.0974798      -7.28723001    
 Ni   5.03131008      -12.6205797      -11.6588602    
 Ni   5.03131008      -7.57309008      -2.91634011    
 Ni   5.03131008      -15.1449804      -7.28647995    
 Ni   5.03037024      -17.6705894      -11.6595697    
 Ni   5.03131008      -12.6218796      -2.91634011    
 Ni   5.03131008      -5.04998016      -7.28647995    
 Ni   5.03131008      -7.57437992      -11.6588602    
 Ni   5.03199005      -2.52436996      -2.91489005    
 Ni   7.04276991      -12.6191998      -8.74314976    
 Ni   7.03693008      -7.57359982       2.80000007E-04
 Ni   7.04276991      -10.0974798      -4.37539005    
 Ni   7.03693008      -17.6705894      -8.74524021    
 Ni   7.03693008      -12.6213703       2.80000007E-04
 Ni   7.03777981      -15.1456203      -4.37268019    
 Ni   7.04276991      -7.57575989      -8.74314976    
 Ni   7.03777981      -2.52436996       6.90000015E-04
 Ni   7.03777981      -5.04933977      -4.37268019    
 Ni   9.03693008      -15.1458502      -10.2019100    
 Ni   9.03693008      -10.0974798      -1.45787001    
 Ni   9.04360962      -12.6202803      -5.83068991    
 Ni   9.03693008      -20.1953297      -10.2019100    
 Ni   9.03831005      -15.1457701      -1.45718002    
 Ni   9.03831005      -17.6705894      -5.83030987    
 Ni   9.04360962      -10.0974798      -10.2003098    
 Ni   9.03831005      -5.04919004      -1.45718002    
 Ni   9.04360962      -7.57467985      -5.83068991    
 Ni   11.0452995      -17.6705894      -11.6595697    
 Ni   11.0435305      -12.6208696      -2.91580009    
 Ni   11.0435305      -15.1449404      -7.28763008    
 Ni   11.0435305      -7.57340002      -11.6582603    
 Ni   11.0454597      -2.52436996      -2.91489005    
 Ni   11.0435305      -5.05002022      -7.28763008    
 Ni   11.0435305      -12.6215601      -11.6582603    
 Ni   11.0435305      -7.57410002      -2.91580009    
 Ni   11.0744896      -10.0974798      -7.28723001    
 Ni   13.0489502      -12.6177101       2.39000004E-03
 Ni   13.0528698      -15.1493702      -4.37052011    
 Ni   13.0489502      -17.6705894      -8.74946022    
 Ni   13.0528698      -2.52436996      -3.64000001E-03
 Ni   13.0528698      -5.04558992      -4.37052011    
 Ni   13.0801601      -7.58559990      -8.73746014    
 Ni   13.0489502      -7.57726002       2.39000004E-03
 Ni   13.0801601      -10.0974798      -4.38676023    
 Ni   13.0801601      -12.6093597      -8.73746014    
 Ni   15.0374098      -15.1472301      -1.45802999    
 Ni   15.0374098      -17.6705894      -5.82861996    
 Ni   15.0386200      -20.1915493      -10.2040901    
 Ni   15.0374098      -5.04772997      -1.45802999    
 Ni   15.0319004      -7.51749992      -5.79766989    
 Ni   15.0319004      -10.0974798      -10.2663403    
 Ni   15.0386200      -10.0974798      -1.45351005    
 Ni   15.0319004      -12.6774702      -5.79766989    
 Ni   15.0386200      -15.1496296      -10.2040901    
 Ni   3.03214002      -8.83530998      -3.64368010    
 Ni   3.03389001      -11.3596296      -8.01593018    
 Ni   3.03183007      -13.8834896      -12.3888502    
 Ni   3.03034997      -13.8842402      -3.64339995    
 Ni   3.03183007      -16.4086208      -8.01519966    
 Ni   3.03154993      -18.9330997      -12.3884697    
 Ni   3.03074002      -3.78622007      -3.64341998    
 Ni   3.03214002      -6.31098986      -8.01593018    
 Ni   3.03034997      -8.83520985      -12.3885698    
 Ni   5.03331995      -11.3595896      -5.10185003    
 Ni   5.03308010      -13.8819799      -9.47220993    
 Ni   5.03143978      -8.83508015     -0.730030000    
 Ni   5.03096008      -16.4081097      -5.10061979    
 Ni   5.03143978      -18.9338093      -9.47255993    
 Ni   5.03120995      -13.8849897     -0.729269981    
 Ni   5.03070021      -6.31121016      -5.10123014    
 Ni   5.03331995      -8.83594036      -9.47294044    
 Ni   5.03096008      -3.78603005     -0.728690028    
 Ni   7.03937006      -13.8829498      -6.55821991    
 Ni   7.03727007      -16.4085503      -10.9309196    
 Ni   7.03843021      -11.3593903      -2.18741012    
 Ni   7.03741980      -3.78681993      -6.55928993    
 Ni   7.03843021      -6.31186008      -10.9299898    
 Ni   7.03779984      -1.26156998      -2.18582010    
 Ni   7.04393005      -8.83623028      -6.55905008    
 Ni   7.03937006      -11.3588696      -10.9300404    
 Ni   7.03741980      -6.31172991      -2.18600011    
 Ni   9.03757954      -16.4085808      -8.01632977    
 Ni   9.03806973      -18.9327793      -12.3882904    
 Ni   9.03798962      -13.8839302      -3.64384007    
 Ni   9.04037952      -6.31325006      -8.01496029    
 Ni   9.03798962      -8.83543968      -12.3880901    
 Ni   9.03829002      -3.78681993      -3.64375997    
 Ni   9.05142975      -11.3567696      -8.01428032    
 Ni   9.03757954      -13.8844500      -12.3882504    
 Ni   9.04037952      -8.83559990      -3.64612007    
 Ni   11.0445404      -18.9349194      -9.47377968    
 Ni   11.0434704      -13.8827801     -0.727999985    
 Ni   11.0451002      -16.4079704      -5.10184002    
 Ni   11.0569897      -8.83549023      -9.47185040    
 Ni   11.0451002      -3.78701997     -0.727949977    
 Ni   11.0460501      -6.31131983      -5.10129023    
 Ni   11.0455303      -13.8815699      -9.47196960    
 Ni   11.0445404      -8.83670044     -0.730390012    
 Ni   11.0569897      -11.3584299      -5.10200024    
 Ni   13.0498400      -6.31268978      -10.9276800    
 Ni   13.0522499      -1.26208997      -2.18611002    
 Ni   13.0495701      -3.78402996      -6.56217003    
 Ni   13.0529203      -11.3617296      -10.9347496    
 Ni   13.0495701      -6.31282997      -2.18214989    
 Ni   13.0765400      -8.83333969      -6.55738020    
 Ni   13.0520802      -16.4079208      -10.9305696    
 Ni   13.0498400      -11.3578100      -2.18928003    
 Ni   13.0529203      -13.8884497      -6.55834007    
 Ni   15.0378399      -8.82835007      -12.4042501    
 Ni   15.0424099      -3.78221989      -3.64110994    
 Ni   15.0398197      -6.29340982      -8.01589966    
 Ni   15.0360003      -13.8908100      -12.3949604    
 Ni   15.0398197      -8.82649040      -3.62846994    
 Ni   15.1728001      -11.3977203      -8.03792000    
 Ni   15.0398397      -18.9314194      -12.3874998    
 Ni   15.0378399      -13.8943796      -3.62962008    
 Ni   15.0360003      -16.4175701      -8.01848030    
 N    16.0534897      -10.0974798      -7.28723001    
