         262
 Energy:  -1304.9456987000001     
 X   0.00000000       0.00000000       0.00000000    
 X   0.00000000      -15.1462221       0.00000000    
 X   0.00000000      -7.57311106      -13.1170130    
 X   29.0000000       0.00000000       0.00000000    
 X   0.00000000      -22.7193336      -13.1170130    
 X   29.0000000      -15.1462221       0.00000000    
 X   29.0000000      -7.57311106      -13.1170130    
 X   29.0000000      -22.7193336      -13.1170130    
 Ni   15.1301603      -11.3980904      -8.01850986    
 Ni   15.0275497      -12.6836700      -5.79380989    
 Ni   15.0384197      -13.8976698      -3.62825990    
 Ni   15.0375700      -15.1481199      -1.45928001    
 Ni   15.0437002      -16.4125900      -3.64135003    
 Ni   15.0373602      -17.6703892      -5.82746983    
 Ni   15.0366402      -16.4185104      -8.01834965    
 Ni   15.0384903      -15.1526699      -10.2066498    
 Ni   15.0365200      -13.8918200      -12.3952904    
 Ni   15.0378904      -16.4097996      -12.3874598    
 Ni   15.0392303      -18.9307308      -12.3877201    
 Ni   15.0391397      -20.1835003      -10.2102003    
 Ni   15.0365105      -18.9173203      -8.01782990    
 Ni   13.0482101      -17.6691799      -8.74979973    
 Ni   13.0507402      -16.4084091      -10.9313402    
 Ni   11.0446997      -17.6709003      -11.6591797    
 Ni   11.0435696      -18.9361897      -9.47307014    
 Ni   9.03466034      -20.1937504      -10.2026501    
 Ni   9.03765965      -18.9330502      -12.3886900    
 Ni   9.03756046      -21.4578896      -12.3872404    
 Ni   11.0429802      -20.1964607      -11.6573200    
 Ni   13.0501099      -18.9310093      -10.9314098    
 Ni   15.0391102      -17.6700497      -10.2039204    
 Ni   15.0384903      -15.1656799      -5.82615995    
 Ni   13.0524101      -13.8876801      -6.55966997    
 Ni   13.0522099      -15.1494102      -4.37095022    
 Ni   11.0445099      -16.4081001      -5.10180998    
 Ni   11.0447197      -15.1456499      -7.28669024    
 Ni   9.03726959      -16.4080505      -8.01562977    
 Ni   9.03452015      -15.1473303      -10.2026796    
 Ni   7.03689003      -16.4084606      -10.9315395    
 Ni   7.03663015      -17.6705208      -8.74483967    
 Ni   5.03020000      -18.9335003      -9.47344971    
 Ni   5.03390980      -17.6714706      -11.6590996    
 Ni   3.03154993      -18.9319096      -12.3874998    
 Ni   3.02958012      -20.1958199      -10.2018299    
 Ni   3.03239989      -21.4577408      -12.3879004    
 Ni   5.03029013      -20.1951904      -11.6590700    
 Ni   7.03819990      -18.9330292      -10.9305096    
 Ni   9.03794956      -17.6703701      -10.2015400    
 Ni   11.0436497      -16.4055099      -9.47305965    
 Ni   13.0477600      -15.1443300      -8.74637032    
 Ni   11.0451298      -13.8820105      -9.47214985    
 Ni   13.0479298      -13.8858204      -10.9295502    
 Ni   13.0490398      -11.3641100      -10.9365797    
 Ni   15.0190802      -10.1090097      -10.2586498    
 Ni   15.0378304      -8.83014011      -12.4091702    
 Ni   15.0396099      -11.3658705      -12.4060097    
 Ni   15.0374699      -12.6427002      -10.2314701    
 Ni   13.0750198      -12.6106901      -8.74040031    
 Ni   15.0375900      -13.9276104      -8.01970005    
 Ni   9.03855991      -16.4075203      -12.3889103    
 Ni   9.03754997      -13.8844604      -12.3877096    
 Ni   11.0441999      -12.6208496      -11.6591702    
 Ni   11.0470800      -11.3641701      -9.47498989    
 Ni   11.0492201      -8.83815956      -9.47216988    
 Ni   11.0445805      -7.57393980      -11.6580095    
 Ni   13.0447998      -6.30416012      -10.9344101    
 Ni   13.0376501      -7.56196022      -8.75527954    
 Ni   15.0595503      -8.70121002      -8.08537006    
 Ni   15.0261202      -6.23739004      -8.02497959    
 Ni   15.0416098      -7.53385019      -5.80650997    
 Ni   15.0349102      -8.81849957      -3.60727000    
 Ni   15.0381804      -10.0974798      -1.44945002    
 Ni   13.0469904      -11.3578100      -2.18593001    
 Ni   13.0486803      -20.1899891      -13.1157799    
 Ni   11.0432396      -13.8816500     -0.728330016    
 Ni   11.0445499      -12.6219702      -2.91509008    
 Ni   9.03827953      -13.8843403      -3.64405990    
 Ni   9.04319954      -12.6202402      -5.83107996    
 Ni   7.04027987      -13.8829899      -6.55843019    
 Ni   7.04250002      -12.6202097      -8.74363995    
 Ni   5.03237009      -13.8830004      -9.47253036    
 Ni   5.03086996      -12.6196003      -11.6588602    
 Ni   7.03947020      -11.3591204      -10.9301901    
 Ni   9.04146004      -10.0967999      -10.2011805    
 Ni   9.03843021      -8.83528996      -12.3887596    
 Ni   9.03818035      -11.3591700      -12.3884802    
 Ni   11.0458698      -10.0971804      -11.6595097    
 Ni   13.0520697      -8.83294010      -10.9337397    
 Ni   15.0299196      -7.53299999      -10.2669601    
 Ni   9.03754044      -18.9339104      -8.01585007    
 Ni   9.03787041      -17.6711693      -5.83066988    
 Ni   9.03798962      -16.4086208      -3.64356995    
 Ni   9.03787041      -15.1457996      -1.45655000    
 Ni   7.03722000      -13.8840103      -2.18623996    
 Ni   7.03889990      -11.3595695      -2.18825006    
 Ni   7.04259014      -10.0976295      -4.37427998    
 Ni   5.03451014      -11.3593397      -5.10225010    
 Ni   5.03534985      -10.0971003      -7.28762007    
 Ni   3.03457999      -11.3593903      -8.01568985    
 Ni   3.03240991      -12.6217098      -5.82991982    
 Ni   3.02988005      -13.8842697      -3.64369011    
 Ni   5.03266001      -12.6221600      -2.91585994    
 Ni   5.03150988      -11.3600798     -0.729849994    
 Ni   5.03055000      -13.8845797     -0.729189992    
 Ni   7.03655005      -20.1951294      -13.1166801    
 Ni   9.03687000      -12.6216602      -1.45770001    
 Ni   9.03503036      -10.0973196      -1.45683002    
 Ni   11.0437403      -8.83757019     -0.731410027    
 Ni   13.0489998      -15.1501904      -13.1144600    
 Ni   13.0488100      -6.31321001      -2.18232012    
 Ni   13.0516005      -5.04598999      -4.37139988    
 Ni   13.0487700      -18.9300194      -6.56246996    
 Ni   11.0451202      -5.05094004      -7.28703022    
 Ni   11.0465698      -6.31097984      -5.10090017    
 Ni   9.04214001      -7.57434988      -5.83070993    
 Ni   9.04141998      -6.31166983      -8.01492977    
 Ni   7.04312992      -7.57489014      -8.74365997    
 Ni   7.03785992      -6.31293011      -10.9298296    
 Ni   5.03232002      -7.57419014      -11.6589603    
 Ni   5.03470993      -8.83602047      -9.47253990    
 Ni   3.03106999      -10.0974503      -10.2019901    
 Ni   3.03151989      -8.83568001      -12.3882799    
 Ni   3.02971005      -11.3593397      -12.3884802    
 Ni   3.03233004      -13.8837204      -12.3876696    
 Ni   3.03201008      -15.1455498      -10.2016802    
 Ni   3.03241992      -16.4071503      -8.01527023    
 Ni   5.03291988      -15.1453104      -7.28650999    
 Ni   7.03718996      -16.4085293      -6.55853987    
 Ni   5.03010988      -16.4073601      -5.10053015    
 Ni   7.03790998      -15.1460104      -4.37239981    
 Ni   5.03107023      -13.8841200      -5.10109997    
 Ni   7.03996992      -12.6215801      -4.37348986    
 Ni   9.04170036      -11.3599005      -3.64609003    
 Ni   11.0440102      -10.0977001      -2.91640997    
 Ni   9.04137993      -8.83561039      -3.64615989    
 Ni   11.0528898      -8.83613968      -5.09999990    
 Ni   13.0584898      -10.0959997      -4.37006998    
 Ni   13.0715103      -8.84111023      -6.55548000    
 Ni   11.0630302      -10.0984297      -7.28723001    
 Ni   9.04885960      -11.3573503      -8.01420021    
 Ni   9.04720974      -8.83757019      -8.01467991    
 Ni   7.04313993      -8.83648014      -6.55851984    
 Ni   7.04031992      -6.31160021      -6.55837011    
 Ni   7.03824997      -3.78695011      -6.55876017    
 Ni   7.03733015      -5.04896021      -4.37292004    
 Ni   5.03107023      -6.31191015      -5.10126019    
 Ni   5.03088999      -7.57285976      -2.91652989    
 Ni   5.03107977      -8.83541965     -0.729619980    
 Ni   7.03695011      -15.1469698      -13.1165895    
 Ni   7.03709984      -6.31180000      -2.18643999    
 Ni   9.03826046      -6.31042004      -3.64406991    
 Ni   9.03785038      -3.78618002      -3.64407992    
 Ni   11.0456495      -2.52410007      -2.91494012    
 Ni   13.0527201      -16.4077206      -2.18580008    
 Ni   13.0517797      -2.52411008      -2.67000007E-03
 Ni   11.0445099      -3.78685999     -0.728269994    
 Ni   9.03715038      -5.04965019      -1.45686996    
 Ni   11.0429697      -6.31194019     -0.728330016    
 Ni   11.0441303      -7.57295990      -2.91621995    
 Ni   13.0468197      -8.83675957      -2.18445992    
 Ni   15.0364199      -7.57123995      -1.44863999    
 Ni   15.0374298      -5.04748011      -1.45836997    
 Ni   15.0417900      -3.78283000      -3.64105010    
 Ni   15.0387096      -6.29819012      -3.63167000    
 Ni   15.0364799      -5.02732992      -5.82450008    
 Ni   13.0539598      -6.31068993      -6.55775023    
 Ni   13.0557899      -7.57066011      -4.37201977    
 Ni   7.04590988      -11.3589296      -6.55903006    
 Ni   9.04893017      -10.0977497      -5.83272982    
 Ni   11.0435104      -11.3584805     -0.730700016    
 Ni   13.0509300      -10.0972099       6.90000015E-04
 Ni   13.0488997      -16.4109192      -6.56193018    
 Ni   11.0433397      -17.6698093      -7.28944016    
 Ni   3.03088999      -12.6211100      -10.2020397    
 Ni   5.03287983      -11.3587999      -9.47303009    
 Ni   7.04386997      -10.0980196      -8.74376011    
 Ni   7.04023981      -8.83582973      -10.9301100    
 Ni   9.04113960      -7.57435989      -10.2020502    
 Ni   11.0390701      -6.30963993      -9.47414970    
 Ni   13.0457401      -5.04384995      -8.74794006    
 Ni   3.03319001      -13.8838997      -8.01589966    
 Ni   5.03449011      -12.6206303      -7.28672981    
 Ni   5.03113985      -10.0977497      -11.6588097    
 Ni   3.02980995      -15.1461897      -5.82954979    
 Ni   3.03123999      -17.6706696      -5.82914019    
 Ni   3.03224993      -18.9333591      -8.01562023    
 Ni   5.03049994      -17.6705704      -7.28652000    
 Ni   5.03142023      -16.4077606      -9.47243023    
 Ni   7.03858995      -15.1444101      -8.74382019    
 Ni   9.04224968      -13.8820000      -8.01502991    
 Ni   11.0554104      -12.6201200      -7.28879976    
 Ni   13.0698500      -11.3594704      -6.55766010    
 Ni   11.0528202      -11.3586397      -5.09995985    
 Ni   11.0461302      -13.8833103      -5.10172987    
 Ni   13.0518198      -12.6235905      -4.36796999    
 Ni   15.0393295      -11.3833799      -3.60110998    
 Ni   15.0366201      -12.6250401      -1.44753003    
 Ni   13.0490398      -13.8821497      -2.18244004    
 Ni   11.0447302      -15.1453800      -2.91472006    
 Ni   3.03000998      -16.4087505      -3.64342999    
 Ni   3.03137994      -15.1469002      -1.45752001    
 Ni   5.03009987      -15.1463203      -2.91598010    
 Ni   7.03854990      -13.8822498      -10.9300499    
 Ni   9.03981972      -12.6211596      -10.2014999    
 Ni   3.03130007      -17.6706200      -10.2032299    
 Ni   3.03271008      -16.4087906      -12.3877602    
 Ni   5.03163004      -15.1454296      -11.6591702    
 Ni   3.03238010      -12.6215401      -1.45854998    
 Ni   3.03188992      -10.0977001      -1.45831001    
 Ni   3.03112006      -8.83510971      -3.64457011    
 Ni   3.03087997      -7.57322979      -5.82982016    
 Ni   3.03303003      -6.31183004      -8.01572990    
 Ni   5.03233004      -5.04983997      -7.28667021    
 Ni   5.03281021      -6.31171989      -9.47274017    
 Ni   7.03819990      -5.05056000      -8.74368954    
 Ni   3.03333998      -11.3596096      -3.64392996    
 Ni   5.03267002      -10.0975904      -2.91589999    
 Ni   7.03869009      -8.83481026      -2.18851995    
 Ni   9.03717041      -7.57376003      -1.45716000    
 Ni   5.03291988      -8.83487988      -5.10214996    
 Ni   7.03975010      -7.57341003      -4.37315989    
 Ni   3.03430009      -10.0975800      -5.83009005    
 Ni   3.03422999      -8.83483982      -8.01620007    
 Ni   5.03461981      -7.57425022      -7.28717995    
 Ni   3.03292990      -7.57386017      -10.2013702    
 Ni   7.03692007      -10.0968199      -4.90000006E-04
 Ni   9.03824997      -15.1461601      -5.82915020    
 Ni   9.03870964      -5.04825020      -5.82950020    
 Ni   11.0448103      -3.78636003      -5.10062981    
 Ni   13.0526800      -17.6705494      -4.37290001    
 Ni   13.0520601      -3.78748989      -2.18583012    
 Ni   15.0412197      -2.52478004      -1.46191001    
 Ni   11.0438499      -15.1448498      -11.6561403    
 Ni   11.0504599      -7.57556009      -7.28499985    
 Ni   11.0445299      -5.04911995      -2.91459990    
 Ni   13.0621004      -10.1096401      -8.74860954    
 Ni   13.0493803      -5.05387020      -6.99999975E-04
 Ni   15.0746698      -10.1508703      -5.75654984    
 Ni   3.03136992      -5.04877996      -5.82939005    
 Ni   3.03133011      -3.78612995      -3.64309001    
 Ni   5.03178978      -2.52466989      -2.91469002    
 Ni   7.03734016      -16.4078293      -2.18590999    
 Ni   7.03722000      -10.0971603      -13.1166296    
 Ni   5.03171015      -3.78611994     -0.728429973    
 Ni   3.03170991      -5.04752016      -1.45802999    
 Ni   5.03059006      -6.30970001     -0.729520023    
 Ni   7.03712988      -12.6224899      -13.1162500    
 Ni   7.03825998      -3.78679991      -2.18614006    
 Ni   9.03787994      -2.52395010      -1.45755005    
 Ni   11.0447998      -1.26268995     -0.729070008    
 Ni   13.0490904      -15.1415195      -8.09999998E-04
 Ni   3.02976990      -6.31068993      -3.64375997    
 Ni   5.03160000      -5.04858017      -2.91538000    
 Ni   5.03086996      -3.78695011      -5.10040998    
 Ni   7.03741980      -17.6706009      -4.37302017    
 Ni   3.03192997      -7.57318020      -1.45801997    
 Ni   3.03110003      -2.52491999      -1.45804000    
 Ni   5.03083992      -1.26313996     -0.728810012    
 Ni   7.03819990      -7.57308006      -13.1166401    
 Ni   15.0370197      -21.4473591      -12.4019699    
 N    16.2926807      -10.2009401      -7.24514008    
 N    16.8373699      -9.12154007      -7.41919994    
