         265
 Energy:  -1363.1596258000000     
 X   0.00000000       0.00000000       0.00000000    
 X   14.2799997       0.00000000       0.00000000    
 X   0.00000000       14.2799997       0.00000000    
 X   0.00000000       0.00000000       14.2799997    
 X   14.2799997       14.2799997       0.00000000    
 X   14.2799997       0.00000000       14.2799997    
 X   0.00000000       14.2799997       14.2799997    
 X   14.2799997       14.2799997       14.2799997    
 Ni -0.107709996     -0.107709996     -0.107709996    
 Ni -0.107709996       1.89270997       1.89270997    
 Ni   1.89270997     -0.107709996       1.89270997    
 Ni   1.89270997       1.89270997     -0.107709996    
 Ni  -1.85700003E-02  -1.85700003E-02   3.60601997    
 Ni  -3.15000000E-03   1.78814995       5.35695982    
 Ni   1.78814995      -3.15000000E-03   5.35695982    
 Ni   1.80357003       1.80357003       3.60601997    
 Ni  -5.69999975E-04  -5.69999975E-04   7.14016008    
 Ni  -5.69999975E-04   1.78557003       8.92483997    
 Ni   1.78557003      -5.69999975E-04   8.92483997    
 Ni   1.78557003       1.78557003       7.14016008    
 Ni  -3.15000000E-03  -3.15000000E-03   10.7080402    
 Ni  -1.85700003E-02   1.80357003       12.4589796    
 Ni   1.80357003      -1.85700003E-02   12.4589796    
 Ni   1.78814995       1.78814995       10.7080402    
 Ni  -1.85700003E-02   3.60601997      -1.85700003E-02
 Ni  -3.15000000E-03   5.35695982       1.78814995    
 Ni   1.80357003       3.60601997       1.80357003    
 Ni   1.78814995       5.35695982      -3.15000000E-03
 Ni  -1.33999996E-02   3.61051011       3.61051011    
 Ni  -2.57000001E-03   5.37249994       5.37249994    
 Ni   1.78696001       3.58031011       5.36528015    
 Ni   1.78696001       5.36528015       3.58031011    
 Ni  -9.50000016E-04   3.57233000       7.14252996    
 Ni  -1.81000005E-03   5.35944986       8.92152977    
 Ni   1.78594995       3.57233000       8.92247009    
 Ni   1.78681004       5.35944986       7.14346981    
 Ni  -1.96000002E-03   3.58031011       10.6997204    
 Ni  -1.96000002E-03   5.36528015       12.4846897    
 Ni   1.79840004       3.61051011       12.4544897    
 Ni   1.78757000       5.37249994       10.6925001    
 Ni  -5.69999975E-04   7.14016008      -5.69999975E-04
 Ni  -5.69999975E-04   8.92483997       1.78557003    
 Ni   1.78557003       7.14016008       1.78557003    
 Ni   1.78557003       8.92483997      -5.69999975E-04
 Ni  -9.50000016E-04   7.14252996       3.57233000    
 Ni  -1.81000005E-03   8.92152977       5.35944986    
 Ni   1.78681004       7.14346981       5.35944986    
 Ni   1.78594995       8.92247009       3.57233000    
 Ni  -2.16999999E-03   7.14450979       7.14450979    
 Ni  -2.16999999E-03   8.92049026       8.92049026    
 Ni   1.78717005       7.14450979       8.92049026    
 Ni   1.78717005       8.92049026       7.14450979    
 Ni  -1.81000005E-03   7.14346981       10.7055502    
 Ni  -9.50000016E-04   8.92247009       12.4926701    
 Ni   1.78594995       7.14252996       12.4926701    
 Ni   1.78681004       8.92152977       10.7055502    
 Ni  -3.15000000E-03   10.7080402      -3.15000000E-03
 Ni  -1.85700003E-02   12.4589796       1.80357003    
 Ni   1.78814995       10.7080402       1.78814995    
 Ni   1.80357003       12.4589796      -1.85700003E-02
 Ni  -1.96000002E-03   10.6997204       3.58031011    
 Ni  -1.96000002E-03   12.4846897       5.36528015    
 Ni   1.78757000       10.6925001       5.37249994    
 Ni   1.79840004       12.4544897       3.61051011    
 Ni  -1.81000005E-03   10.7055502       7.14346981    
 Ni  -9.50000016E-04   12.4926701       8.92247009    
 Ni   1.78681004       10.7055502       8.92152977    
 Ni   1.78594995       12.4926701       7.14252996    
 Ni  -2.57000001E-03   10.6925001       10.6925001    
 Ni  -1.33999996E-02   12.4544897       12.4544897    
 Ni   1.78696001       10.6997204       12.4846897    
 Ni   1.78696001       12.4846897       10.6997204    
 Ni   3.60601997      -1.85700003E-02  -1.85700003E-02
 Ni   3.60601997       1.80357003       1.80357003    
 Ni   5.35695982      -3.15000000E-03   1.78814995    
 Ni   5.35695982       1.78814995      -3.15000000E-03
 Ni   3.61051011      -1.33999996E-02   3.61051011    
 Ni   3.58031011       1.78696001       5.36528015    
 Ni   5.37249994      -2.57000001E-03   5.37249994    
 Ni   5.36528015       1.78696001       3.58031011    
 Ni   3.57233000      -9.50000016E-04   7.14252996    
 Ni   3.57233000       1.78594995       8.92247009    
 Ni   5.35944986      -1.81000005E-03   8.92152977    
 Ni   5.35944986       1.78681004       7.14346981    
 Ni   3.58031011      -1.96000002E-03   10.6997204    
 Ni   3.61051011       1.79840004       12.4544897    
 Ni   5.36528015      -1.96000002E-03   12.4846897    
 Ni   5.37249994       1.78757000       10.6925001    
 Ni   3.61051011       3.61051011      -1.33999996E-02
 Ni   3.58031011       5.36528015       1.78696001    
 Ni   5.36528015       3.58031011       1.78696001    
 Ni   5.37249994       5.37249994      -2.57000001E-03
 Ni   3.57686996       3.57686996       3.57686996    
 Ni   3.57392001       5.35899019       5.35899019    
 Ni   5.35899019       3.57392001       5.35899019    
 Ni   5.35899019       5.35899019       3.57392001    
 Ni   3.57326007       3.57326007       7.14326000    
 Ni   3.57372999       5.35933018       8.92117977    
 Ni   5.35933018       3.57372999       8.92117977    
 Ni   5.35776997       5.35776997       7.14052010    
 Ni   3.57900000       3.57900000       10.6971102    
 Ni   3.57900000       5.36788988       12.4860001    
 Ni   5.36788988       3.57900000       12.4860001    
 Ni   5.36015987       5.36015987       10.7048397    
 Ni   3.57233000       7.14252996      -9.50000016E-04
 Ni   3.57233000       8.92247009       1.78594995    
 Ni   5.35944986       7.14346981       1.78681004    
 Ni   5.35944986       8.92152977      -1.81000005E-03
 Ni   3.57326007       7.14326000       3.57326007    
 Ni   3.57372999       8.92117977       5.35933018    
 Ni   5.35776997       7.14052010       5.35776997    
 Ni   5.35933018       8.92117977       3.57372999    
 Ni   3.57362008       7.14081001       7.14081001    
 Ni   3.57362008       8.92418957       8.92418957    
 Ni   5.35775995       7.14161015       8.92339039    
 Ni   5.35775995       8.92339039       7.14161015    
 Ni   3.57372999       7.14381981       10.7056704    
 Ni   3.57326007       8.92173958       12.4917402    
 Ni   5.35933018       7.14381981       12.4912701    
 Ni   5.35776997       8.92448044       10.7072296    
 Ni   3.58031011       10.6997204      -1.96000002E-03
 Ni   3.61051011       12.4544897       1.79840004    
 Ni   5.37249994       10.6925001       1.78757000    
 Ni   5.36528015       12.4846897      -1.96000002E-03
 Ni   3.57900000       10.6971102       3.57900000    
 Ni   3.57900000       12.4860001       5.36788988    
 Ni   5.36015987       10.7048397       5.36015987    
 Ni   5.36788988       12.4860001       3.57900000    
 Ni   3.57372999       10.7056704       7.14381981    
 Ni   3.57326007       12.4917402       8.92173958    
 Ni   5.35776997       10.7072296       8.92448044    
 Ni   5.35933018       12.4912701       7.14381981    
 Ni   3.57392001       10.7060099       10.7060099    
 Ni   3.57686996       12.4881296       12.4881296    
 Ni   5.35899019       10.7060099       12.4910803    
 Ni   5.35899019       12.4910803       10.7060099    
 Ni   7.14016008      -5.69999975E-04  -5.69999975E-04
 Ni   7.14016008       1.78557003       1.78557003    
 Ni   8.92483997      -5.69999975E-04   1.78557003    
 Ni   8.92483997       1.78557003      -5.69999975E-04
 Ni   7.14252996      -9.50000016E-04   3.57233000    
 Ni   7.14346981       1.78681004       5.35944986    
 Ni   8.92152977      -1.81000005E-03   5.35944986    
 Ni   8.92247009       1.78594995       3.57233000    
 Ni   7.14450979      -2.16999999E-03   7.14450979    
 Ni   7.14450979       1.78717005       8.92049026    
 Ni   8.92049026      -2.16999999E-03   8.92049026    
 Ni   8.92049026       1.78717005       7.14450979    
 Ni   7.14346981      -1.81000005E-03   10.7055502    
 Ni   7.14252996       1.78594995       12.4926701    
 Ni   8.92247009      -9.50000016E-04   12.4926701    
 Ni   8.92152977       1.78681004       10.7055502    
 Ni   7.14252996       3.57233000      -9.50000016E-04
 Ni   7.14346981       5.35944986       1.78681004    
 Ni   8.92247009       3.57233000       1.78594995    
 Ni   8.92152977       5.35944986      -1.81000005E-03
 Ni   7.14326000       3.57326007       3.57326007    
 Ni   7.14052010       5.35776997       5.35776997    
 Ni   8.92117977       3.57372999       5.35933018    
 Ni   8.92117977       5.35933018       3.57372999    
 Ni   7.14081001       3.57362008       7.14081001    
 Ni   7.14161015       5.35775995       8.92339039    
 Ni   8.92418957       3.57362008       8.92418957    
 Ni   8.92339039       5.35775995       7.14161015    
 Ni   7.14381981       3.57372999       10.7056704    
 Ni   7.14381981       5.35933018       12.4912701    
 Ni   8.92173958       3.57326007       12.4917402    
 Ni   8.92448044       5.35776997       10.7072296    
 Ni   7.14450979       7.14450979      -2.16999999E-03
 Ni   7.14450979       8.92049026       1.78717005    
 Ni   8.92049026       7.14450979       1.78717005    
 Ni   8.92049026       8.92049026      -2.16999999E-03
 Ni   7.14081001       7.14081001       3.57362008    
 Ni   7.14161015       8.92339039       5.35775995    
 Ni   8.92339039       7.14161015       5.35775995    
 Ni   8.92418957       8.92418957       3.57362008    
 Ni   7.14137983       7.14137983       7.14137983    
 Ni   7.14137983       8.92362022       8.92362022    
 Ni   8.92362022       7.14137983       8.92362022    
 Ni   8.92362022       8.92362022       7.14137983    
 Ni   7.14161015       7.14161015       10.7072401    
 Ni   7.14081001       8.92418957       12.4913797    
 Ni   8.92418957       7.14081001       12.4913797    
 Ni   8.92339039       8.92339039       10.7072401    
 Ni   7.14346981       10.7055502      -1.81000005E-03
 Ni   7.14252996       12.4926701       1.78594995    
 Ni   8.92152977       10.7055502       1.78681004    
 Ni   8.92247009       12.4926701      -9.50000016E-04
 Ni   7.14381981       10.7056704       3.57372999    
 Ni   7.14381981       12.4912701       5.35933018    
 Ni   8.92448044       10.7072296       5.35776997    
 Ni   8.92173958       12.4917402       3.57326007    
 Ni   7.14161015       10.7072401       7.14161015    
 Ni   7.14081001       12.4913797       8.92418957    
 Ni   8.92339039       10.7072401       8.92339039    
 Ni   8.92418957       12.4913797       7.14081001    
 Ni   7.14052010       10.7072296       10.7072296    
 Ni   7.14326000       12.4917402       12.4917402    
 Ni   8.92117977       10.7056704       12.4912701    
 Ni   8.92117977       12.4912701       10.7056704    
 Ni   10.7080402      -3.15000000E-03  -3.15000000E-03
 Ni   10.7080402       1.78814995       1.78814995    
 Ni   12.4589796      -1.85700003E-02   1.80357003    
 Ni   12.4589796       1.80357003      -1.85700003E-02
 Ni   10.6997204      -1.96000002E-03   3.58031011    
 Ni   10.6925001       1.78757000       5.37249994    
 Ni   12.4846897      -1.96000002E-03   5.36528015    
 Ni   12.4544897       1.79840004       3.61051011    
 Ni   10.7055502      -1.81000005E-03   7.14346981    
 Ni   10.7055502       1.78681004       8.92152977    
 Ni   12.4926701      -9.50000016E-04   8.92247009    
 Ni   12.4926701       1.78594995       7.14252996    
 Ni   10.6925001      -2.57000001E-03   10.6925001    
 Ni   10.6997204       1.78696001       12.4846897    
 Ni   12.4544897      -1.33999996E-02   12.4544897    
 Ni   12.4846897       1.78696001       10.6997204    
 Ni   10.6997204       3.58031011      -1.96000002E-03
 Ni   10.6925001       5.37249994       1.78757000    
 Ni   12.4544897       3.61051011       1.79840004    
 Ni   12.4846897       5.36528015      -1.96000002E-03
 Ni   10.6971102       3.57900000       3.57900000    
 Ni   10.7048397       5.36015987       5.36015987    
 Ni   12.4860001       3.57900000       5.36788988    
 Ni   12.4860001       5.36788988       3.57900000    
 Ni   10.7056704       3.57372999       7.14381981    
 Ni   10.7072296       5.35776997       8.92448044    
 Ni   12.4917402       3.57326007       8.92173958    
 Ni   12.4912701       5.35933018       7.14381981    
 Ni   10.7060099       3.57392001       10.7060099    
 Ni   10.7060099       5.35899019       12.4910803    
 Ni   12.4881296       3.57686996       12.4881296    
 Ni   12.4910803       5.35899019       10.7060099    
 Ni   10.7055502       7.14346981      -1.81000005E-03
 Ni   10.7055502       8.92152977       1.78681004    
 Ni   12.4926701       7.14252996       1.78594995    
 Ni   12.4926701       8.92247009      -9.50000016E-04
 Ni   10.7056704       7.14381981       3.57372999    
 Ni   10.7072296       8.92448044       5.35776997    
 Ni   12.4912701       7.14381981       5.35933018    
 Ni   12.4917402       8.92173958       3.57326007    
 Ni   10.7072401       7.14161015       7.14161015    
 Ni   10.7072401       8.92339039       8.92339039    
 Ni   12.4913797       7.14081001       8.92418957    
 Ni   12.4913797       8.92418957       7.14081001    
 Ni   10.7072296       7.14052010       10.7072296    
 Ni   10.7056704       8.92117977       12.4912701    
 Ni   12.4917402       7.14326000       12.4917402    
 Ni   12.4912701       8.92117977       10.7056704    
 Ni   10.6925001       10.6925001      -2.57000001E-03
 Ni   10.6997204       12.4846897       1.78696001    
 Ni   12.4846897       10.6997204       1.78696001    
 Ni   12.4544897       12.4544897      -1.33999996E-02
 Ni   10.7060099       10.7060099       3.57392001    
 Ni   10.7060099       12.4910803       5.35899019    
 Ni   12.4910803       10.7060099       5.35899019    
 Ni   12.4881296       12.4881296       3.57686996    
 Ni   10.7072296       10.7072296       7.14052010    
 Ni   10.7056704       12.4912701       8.92117977    
 Ni   12.4912701       10.7056704       8.92117977    
 Ni   12.4917402       12.4917402       7.14326000    
 Ni   10.7048397       10.7048397       10.7048397    
 Ni   10.6971102       12.4860001       12.4860001    
 Ni   12.4860001       10.6971102       12.4860001    
 Ni   12.4860001       12.4860001       10.6971102    
 N   0.892499983      0.892499983      0.892499983    
