          12
 Energy:  -15.954672100000000     
 X   0.00000000       0.00000000       0.00000000    
 X   14.5000000       0.00000000       0.00000000    
 X   0.00000000       14.5000000       0.00000000    
 X   0.00000000       0.00000000       14.5000000    
 X   14.5000000       14.5000000       0.00000000    
 X   14.5000000       0.00000000       14.5000000    
 X   0.00000000       14.5000000       14.5000000    
 X   14.5000000       14.5000000       14.5000000    
 N    0.00000000       0.00000000       0.00000000    
 N    1.10000002       0.00000000       0.00000000    
 N    2.00000000       0.00000000       0.00000000    
 N    3.09999990       0.00000000       0.00000000    
