          18
 Energy:  -78.583868400000000     
 X   0.00000000       0.00000000       0.00000000    
 X   14.5000000       0.00000000       0.00000000    
 X   0.00000000       14.5000000       0.00000000    
 X   0.00000000       0.00000000       14.5000000    
 X   14.5000000       14.5000000       0.00000000    
 X   14.5000000       0.00000000       14.5000000    
 X   0.00000000       14.5000000       14.5000000    
 X   14.5000000       14.5000000       14.5000000    
 N    10.4406796       5.00590992       2.74878001    
 N    9.53868961       5.57455015       2.94850993    
 N    13.9345798       14.0900602       2.41263008    
 N    6.21699989E-02   14.1394701       1.32907999    
 N    6.44493008       11.2986403       11.3207397    
 N    7.45661020       11.4582500       10.7925196    
 N    3.10379004       2.55532002       3.50409007    
 N    3.41347003       1.79933000       4.52477980    
 N    2.59945989       6.01853991       2.20167994    
 N    1.60563004       6.85992002       2.21719003    
