          12
 Energy:  -20.387006700000001     
 X   0.00000000       0.00000000       0.00000000    
 X   14.5000000       0.00000000       0.00000000    
 X   0.00000000       14.5000000       0.00000000    
 X   0.00000000       0.00000000       14.5000000    
 X   14.5000000       14.5000000       0.00000000    
 X   14.5000000       0.00000000       14.5000000    
 X   0.00000000       14.5000000       14.5000000    
 X   14.5000000       14.5000000       14.5000000    
 N    0.00000000       0.00000000       0.00000000    
 N    1.10000002       0.00000000       0.00000000    
 N   0.500000000       14.0000000       1.50000000    
 N   0.500000000      0.500000000       1.50000000    
