         261
 Energy:  -928.73344750000001     
 X   0.00000000       0.00000000       0.00000000    
 X   0.00000000      -17.1805725       0.00000000    
 X   0.00000000      -8.59028625      -14.8788128    
 X   30.0000000       0.00000000       0.00000000    
 X   0.00000000      -25.7708588      -14.8788128    
 X   30.0000000      -17.1805725       0.00000000    
 X   30.0000000      -8.59028625      -14.8788128    
 X   30.0000000      -25.7708588      -14.8788128    
 Al   2.35477996      -11.4537201      -6.61746979    
 Al   2.37468004      -14.3126297      -11.5728397    
 Al   2.37217999      -8.59257030      -1.65211999    
 Al   2.36887002      -17.1821003      -6.61136007    
 Al   2.35502005      -20.0440006      -11.5685396    
 Al   2.37217999      -14.3148603      -1.65211999    
 Al   2.36887002      -5.72532988      -6.61136007    
 Al   2.37468004      -8.59480000      -11.5728397    
 Al   2.35908008      -2.86343002      -1.65190995    
 Al   4.71093988      -14.3105803      -8.26552963    
 Al   4.71038008      -17.1821499      -13.2236404    
 Al   4.71907997      -11.4537201      -3.30870008    
 Al   4.71707010      -20.0440006      -8.26336956    
 Al   4.71038008      -22.9058495      -13.2236404    
 Al   4.71341991      -17.1825294      -3.30831003    
 Al   4.71093988      -8.59685040      -8.26552963    
 Al   4.71456003      -11.4537201      -13.2224197    
 Al   4.71341991      -5.72489977      -3.30831003    
 Al   7.02108002      -17.1800900      -9.92066956    
 Al   7.01515007      -11.4537201       3.29999998E-03
 Al   7.01747990      -14.3119497      -4.96588993    
 Al   7.02108002      -5.72734022      -9.92066956    
 Al   7.01823997      -1.67000003E-03  -2.99999992E-05
 Al   7.01864004      -2.86343002      -4.95617008    
 Al   7.01772022      -11.4537201      -9.91534042    
 Al   7.01823997      -5.72519016      -2.99999992E-05
 Al   7.01747990      -8.59547997      -4.96588993    
 Al   9.35383034      -20.0440006      -11.5738697    
 Al   9.35109997      -14.3204298      -1.65564001    
 Al   9.35138035      -17.1765194      -6.61422014    
 Al   9.35268974      -8.59430981      -11.5666199    
 Al   9.35816956      -2.86343002      -1.65284002    
 Al   9.35138035      -5.73090982      -6.61422014    
 Al   9.35268974      -14.3131199      -11.5666199    
 Al   9.35109997      -8.58699989      -1.65564001    
 Al   9.36065960      -11.4537201      -6.61307001    
 Al   11.6911297      -22.9115696      -13.2238903    
 Al   11.6883602      -17.1775799      -3.30631995    
 Al   11.6878796      -20.0440006      -8.26700974    
 Al   11.6863604      -11.4537201      -13.2257996    
 Al   11.6883602      -5.72984982      -3.30631995    
 Al   11.6997299      -8.59805012      -8.26576042    
 Al   11.6911297      -17.1764297      -13.2238903    
 Al   11.6980696      -11.4537201      -3.31374002    
 Al   11.6997299      -14.3093796      -8.26576042    
 Al   13.9934902       4.24000015E-03   1.06000004E-03
 Al   13.9864101      -2.86343002      -4.95852995    
 Al   13.9984198      -5.72710991      -9.92306995    
 Al   13.9934902      -5.73110008       1.06000004E-03
 Al   13.9794598      -8.58174038      -4.94393015    
 Al   13.9966803      -11.4537201      -9.92634964    
 Al   13.9873304      -11.4537201      -2.24000006E-03
 Al   13.9794598      -14.3256903      -4.94393015    
 Al   13.9984198      -17.1803207      -9.92306995    
 Al   16.3318901      -2.86343002      -1.65698004    
 Al   16.3373108      -5.70213985      -6.60937977    
 Al   16.3567696      -8.60435009      -11.5800600    
 Al   16.3431492      -8.59475040      -1.65180004    
 Al   16.4439507      -11.4537201      -6.55251980    
 Al   16.3567696      -14.3030796      -11.5800600    
 Al   16.3431492      -14.3126802      -1.65180004    
 Al   16.3373108      -17.2052898      -6.60937977    
 Al   16.3271103      -20.0440006      -11.5719604    
 Al   2.36887002      -7.15655994      -4.13240004    
 Al   2.35477996      -10.0260401      -9.09027958    
 Al   2.36887002      -12.8849401      -14.0542603    
 Al   2.37468004      -12.8880501      -4.13670015    
 Al   2.37468004      -15.7469702      -9.08848953    
 Al   2.35502005      -18.6089401      -14.0541401    
 Al   2.35908008      -18.6111698      -4.13364983    
 Al   2.37217999      -21.4759197      -9.09512997    
 Al   2.37217999      -24.3370609      -14.0507698    
 Al   4.71093988      -10.0248699      -5.79212999    
 Al   4.71093988      -12.8817396      -10.7403603    
 Al   4.71707010      -7.15629005     -0.827920020    
 Al   4.71456003      -15.7461004      -5.78779984    
 Al   4.71038008      -18.6113701      -10.7481604    
 Al   4.71038008      -12.8829403     -0.826219976    
 Al   4.71341991      -4.29582024      -5.78355980    
 Al   4.71907997      -7.16056013      -10.7446604    
 Al   4.71341991      -1.43434000     -0.827340007    
 Al   7.01772022      -12.8820801      -7.44133997    
 Al   7.02108002      -15.7498903      -12.3978596    
 Al   7.02108002      -10.0235100      -2.47949004    
 Al   7.01823997      -18.6114807      -7.43795013    
 Al   7.01515007      -21.4728508      -12.4006596    
 Al   7.01823997      -15.7497196      -2.48123002    
 Al   7.01747990      -7.16660976      -7.44076014    
 Al   7.01747990      -10.0248499      -12.3913698    
 Al   7.01864004      -4.29217005      -2.48151994    
 Al   9.35268974      -15.7418299      -9.09202003    
 Al   9.35383034      -18.6135502      -14.0514803    
 Al   9.35268974      -12.8824301      -4.13938999    
 Al   9.35109997      -21.4761791      -9.08854961    
 Al   9.35109997      -24.3428993      -14.0538397    
 Al   9.35816956      -18.6119804      -4.13318014    
 Al   9.36065960      -10.0222301      -9.09247971    
 Al   9.35138035      -12.8846302      -14.0480003    
 Al   9.35138035      -7.16181993      -4.13579988    
 Al   11.6911297      -18.6087208      -10.7430801    
 Al   11.6911297      -12.8860102     -0.831049979    
 Al   11.6863604      -15.7490301      -5.78610992    
 Al   11.6980696      -7.16491985      -10.7421398    
 Al   11.6883602      -1.43014002     -0.824050009    
 Al   11.6883602      -4.29656982      -5.78883982    
 Al   11.6997299      -12.8813400      -10.7392101    
 Al   11.6878796      -7.15944004     -0.826099992    
 Al   11.6997299      -10.0256701      -5.79304981    
 Al   13.9873304      -21.4776497      -12.3978901    
 Al   13.9934902      -15.7458200      -2.47666001    
 Al   13.9934902      -18.6134892      -7.44361019    
 Al   13.9794598      -10.0127001      -12.4142504    
 Al   13.9864101      -4.29421997      -2.48034000    
 Al   13.9794598      -7.14072990      -7.43983984    
 Al   13.9984198      -15.7520800      -12.3968601    
 Al   13.9984198      -10.0254698      -2.47809005    
 Al   13.9966803      -12.8916197      -7.43583012    
 Al   16.3431492      -24.3356991      -14.0490503    
 Al   16.3318901      -18.6155605      -4.13111019    
 Al   16.3431492      -21.4767399      -9.09716988    
 Al   16.3373108      -12.8948202      -14.0753298    
 Al   16.3373108      -7.14324999      -4.11330986    
 Al   16.4439507      -9.96979046      -9.12275028    
 Al   16.3271103      -18.6119003      -14.0524397    
 Al   16.3567696      -12.8990898      -4.14135981    
 Al   16.3567696      -15.7484503      -9.07660007    
 Al   2.35466003      -8.58955956      -6.61239004    
 Al   2.35466003      -11.4537201      -11.5732498    
 Al   2.36663008      -5.72727013      -1.65295994    
 Al   2.35466003      -14.3178701      -6.61239004    
 Al   2.36761999      -17.1782303      -11.5710497    
 Al   2.36761999      -11.4537201      -1.65591002    
 Al   2.36663008      -20.0440006      -6.61328983    
 Al   2.36761999      -22.9097805      -11.5710497    
 Al   2.36663008      -17.1801605      -1.65295994    
 Al   4.70695019      -11.4537201      -8.26601028    
 Al   4.71726990      -14.3157101      -13.2254295    
 Al   4.71726990      -8.58971977      -3.30773997    
 Al   4.71726990      -17.1797009      -8.26484966    
 Al   4.70238018      -20.0440006      -13.2256098    
 Al   4.71726990      -14.3177099      -3.30773997    
 Al   4.71726990      -5.72772980      -8.26484966    
 Al   4.71726990      -8.59171963      -13.2254295    
 Al   4.70758009      -2.86343002      -3.30640006    
 Al   7.01268005      -14.3104696      -9.91534996    
 Al   7.01658010      -8.59609985       3.35999997E-03
 Al   7.01268005      -11.4537201      -4.96730995    
 Al   7.01658010      -20.0440006      -9.92591953    
 Al   7.01658010      -14.3113298       3.35999997E-03
 Al   7.01683998      -17.1808109      -4.95946980    
 Al   7.01268005      -8.59696007      -9.91534996    
 Al   7.01683998      -2.86343002      -2.69999990E-04
 Al   7.01683998      -5.72662020      -4.95946980    
 Al   9.35289001      -17.1815701      -11.5729799    
 Al   9.35289001      -11.4537201      -1.65205002    
 Al   9.35929012      -14.3099699      -6.61695004    
 Al   9.35289001      -22.9064407      -11.5729799    
 Al   9.35517025      -17.1833706      -1.65481997    
 Al   9.35517025      -20.0440006      -6.60957003    
 Al   9.35929012      -11.4537201      -11.5641203    
 Al   9.35517025      -5.72406006      -1.65481997    
 Al   9.35929012      -8.59745979      -6.61695004    
 Al   11.6967001      -20.0440006      -13.2256098    
 Al   11.6867304      -14.3122997      -3.30914998    
 Al   11.6867304      -17.1757698      -8.26881981    
 Al   11.6867304      -8.59025002      -13.2200403    
 Al   11.6849899      -2.86343002      -3.30640006    
 Al   11.6867304      -5.73165989      -8.26881981    
 Al   11.6867304      -14.3171797      -13.2200403    
 Al   11.6867304      -8.59512997      -3.30914998    
 Al   11.6742401      -11.4537201      -8.26601028    
 Al   13.9885502      -14.3186102      -8.50000011E-04
 Al   13.9853201      -17.1907597      -4.95372009    
 Al   13.9885502      -20.0440006      -9.91751957    
 Al   13.9853201      -2.86343002      -1.17600001E-02
 Al   13.9853201      -5.71667004      -4.95372009    
 Al   14.0103703      -8.60165977      -9.91263962    
 Al   13.9885502      -8.58882046      -8.50000011E-04
 Al   14.0103703      -11.4537201      -4.97273016    
 Al   14.0103703      -14.3057699      -9.91263962    
 Al   16.3367100      -17.1810398      -1.65347004    
 Al   16.3367100      -20.0440006      -6.61226988    
 Al   16.3515396      -22.9189301      -11.5657701    
 Al   16.3367100      -5.72638988      -1.65347004    
 Al   16.2822094      -8.51743984      -6.57075024    
 Al   16.2822094      -11.4537201      -11.6565304    
 Al   16.3515396      -11.4537201      -1.66647995    
 Al   16.2822094      -14.3899899      -6.57075024    
 Al   16.3515396      -17.1690807      -11.5657701    
 Al   2.37468004      -10.0193796      -4.13670015    
 Al   2.35477996      -12.8813896      -9.09027958    
 Al   2.37217999      -15.7509403      -14.0507698    
 Al   2.36887002      -15.7508698      -4.13240004    
 Al   2.37217999      -18.6120796      -9.09512997    
 Al   2.35502005      -21.4790592      -14.0541401    
 Al   2.35908008      -4.29625988      -4.13364983    
 Al   2.37468004      -7.16046000      -9.08848953    
 Al   2.36887002      -10.0224895      -14.0542603    
 Al   4.71093988      -12.8825598      -5.79212999    
 Al   4.71907997      -15.7468700      -10.7446604    
 Al   4.71038008      -10.0244999     -0.826219976    
 Al   4.71341991      -18.6116104      -5.78355980    
 Al   4.71038008      -21.4766293      -10.7481604    
 Al   4.71707010      -15.7511396     -0.827920020    
 Al   4.71456003      -7.16133022      -5.78779984    
 Al   4.71093988      -10.0256996      -10.7403603    
 Al   4.71341991      -4.29251003     -0.827340007    
 Al   7.01747990      -15.7408199      -7.44076014    
 Al   7.01515007      -18.6151505      -12.4006596    
 Al   7.02108002      -12.8839197      -2.47949004    
 Al   7.01823997      -4.29594994      -7.43795013    
 Al   7.02108002      -7.15754986      -12.3978596    
 Al   7.01864004      -1.43469000      -2.48151994    
 Al   7.01772022      -10.0253496      -7.44133997    
 Al   7.01747990      -12.8825798      -12.3913698    
 Al   7.01823997      -7.15772009      -2.48123002    
 Al   9.35109997      -18.6118202      -9.08854961    
 Al   9.35383034      -21.4744492      -14.0514803    
 Al   9.35138035      -15.7456102      -4.13579988    
 Al   9.35268974      -7.16559982      -9.09202003    
 Al   9.35138035      -10.0228004      -14.0480003    
 Al   9.35816956      -4.29545021      -4.13318014    
 Al   9.36065960      -12.8851995      -9.09247971    
 Al   9.35109997      -15.7451096      -14.0538397    
 Al   9.35268974      -10.0249996      -4.13938999    
 Al   11.6911297      -21.4792805      -10.7430801    
 Al   11.6878796      -15.7479897     -0.826099992    
 Al   11.6883602      -18.6108704      -5.78883982    
 Al   11.6997299      -10.0260897      -10.7392101    
 Al   11.6883602      -4.29672003     -0.824050009    
 Al   11.6863604      -7.15841007      -5.78610992    
 Al   11.6980696      -15.7425098      -10.7421398    
 Al   11.6911297      -10.0214195     -0.831049979    
 Al   11.6997299      -12.8817596      -5.79304981    
 Al   13.9984198      -7.15535021      -12.3968601    
 Al   13.9864101      -1.43263996      -2.48034000    
 Al   13.9934902      -4.29394007      -7.44361019    
 Al   13.9794598      -12.8947296      -12.4142504    
 Al   13.9934902      -7.16161013      -2.47666001    
 Al   13.9966803      -10.0158100      -7.43583012    
 Al   13.9873304      -18.6103497      -12.3978901    
 Al   13.9984198      -12.8819599      -2.47809005    
 Al   13.9794598      -15.7666998      -7.43983984    
 Al   16.3373108      -10.0126104      -14.0753298    
 Al   16.3318901      -4.29187012      -4.13111019    
 Al   16.3567696      -7.15897989      -9.07660007    
 Al   16.3431492      -15.7523003      -14.0490503    
 Al   16.3567696      -10.0083504      -4.14135981    
 Al   16.4439507      -12.9376402      -9.12275028    
 Al   16.3271103      -21.4761105      -14.0524397    
 Al   16.3373108      -15.7641802      -4.11330986    
 Al   16.3431492      -18.6112709      -9.09716988    
 N    17.1457996      -11.4537201      -8.26601028    
